# HG changeset patch
# Parent 4d53a3be2ced4df6a1538229a25cedd6b0e16f5d
# User Joel Hestness <jthestness@gmail.com>
Add GPGPU-Sim 3.2.2 Generated Code

As a step toward making GPGPU-Sim more plug-and-play, move the generated code
from being part of the UW GPGPU-Sim repository and make it part of the patches.
With this change, users can now check out GPGPU-Sim from the UBC git repo,
update it to the correct version, pull UW GPGPU-Sim patches and apply, and
build gem5-gpu.

diff --git a/cuda-sim/instructions.h b/cuda-sim/instructions.h
new file mode 100644
--- /dev/null
+++ b/cuda-sim/instructions.h
@@ -0,0 +1,95 @@
+// DO NOT EDIT THIS FILE! IT IS AUTOMATICALLY GENERATED BY THE MAKEFILE (see target for instructions.h)
+#include "ptx_ir.h"
+#ifndef instructions_h_included
+#define instructions_h_included
+void abs_impl( const ptx_instruction *pI, ptx_thread_info *thread ) ;
+void addp_impl( const ptx_instruction *pI, ptx_thread_info *thread );
+void add_impl( const ptx_instruction *pI, ptx_thread_info *thread ) ;
+void addc_impl( const ptx_instruction *pI, ptx_thread_info *thread ) ;
+void and_impl( const ptx_instruction *pI, ptx_thread_info *thread ) ;
+void andn_impl( const ptx_instruction *pI, ptx_thread_info *thread ) ;
+void atom_impl( const ptx_instruction *pI, ptx_thread_info *thread );
+void bar_sync_impl( const ptx_instruction *pI, ptx_thread_info *thread ) ;
+void bfe_impl( const ptx_instruction *pI, ptx_thread_info *thread ) ;
+void bfi_impl( const ptx_instruction *pI, ptx_thread_info *thread ) ;
+void bfind_impl( const ptx_instruction *pI, ptx_thread_info *thread ) ;
+void bra_impl( const ptx_instruction *pI, ptx_thread_info *thread ) ;
+void brx_impl( const ptx_instruction *pI, ptx_thread_info *thread ) ;
+void break_impl( const ptx_instruction *pI, ptx_thread_info *thread ) ;
+void breakaddr_impl( const ptx_instruction *pI, ptx_thread_info *thread ) ;
+void brev_impl( const ptx_instruction *pI, ptx_thread_info *thread ) ;
+void brkpt_impl( const ptx_instruction *pI, ptx_thread_info *thread ) ;
+void call_impl( const ptx_instruction *pI, ptx_thread_info *thread ) ;
+void callp_impl( const ptx_instruction *pI, ptx_thread_info *thread );
+void clz_impl( const ptx_instruction *pI, ptx_thread_info *thread );
+void cnot_impl( const ptx_instruction *pI, ptx_thread_info *thread ) ;
+void cos_impl( const ptx_instruction *pI, ptx_thread_info *thread ) ;
+void cvt_impl( const ptx_instruction *pI, ptx_thread_info *thread ) ;
+void cvta_impl( const ptx_instruction *pI, ptx_thread_info *thread ) ;
+void div_impl( const ptx_instruction *pI, ptx_thread_info *thread ) ;
+void ex2_impl( const ptx_instruction *pI, ptx_thread_info *thread ) ;
+void exit_impl( const ptx_instruction *pI, ptx_thread_info *thread ) ;
+void fma_impl( const ptx_instruction *pI, ptx_thread_info *thread ) ;
+void isspacep_impl( const ptx_instruction *pI, ptx_thread_info *thread ) ;
+void ld_impl( const ptx_instruction *pI, ptx_thread_info *thread ) ;
+void ldu_impl( const ptx_instruction *pI, ptx_thread_info *thread ) ;
+void lg2_impl( const ptx_instruction *pI, ptx_thread_info *thread ) ;
+void mad24_impl( const ptx_instruction *pI, ptx_thread_info *thread );
+void mad_impl( const ptx_instruction *pI, ptx_thread_info *thread ) ;
+void madp_impl( const ptx_instruction *pI, ptx_thread_info *thread ) ;
+void max_impl( const ptx_instruction *pI, ptx_thread_info *thread ) ;
+void membar_impl( const ptx_instruction *pI, ptx_thread_info *thread ) ;
+void min_impl( const ptx_instruction *pI, ptx_thread_info *thread ) ;
+void mov_impl( const ptx_instruction *pI, ptx_thread_info *thread ) ;
+void mul24_impl( const ptx_instruction *pI, ptx_thread_info *thread ) ;
+void mul_impl( const ptx_instruction *pI, ptx_thread_info *thread ) ;
+void neg_impl( const ptx_instruction *pI, ptx_thread_info *thread ) ;
+void nandn_impl( const ptx_instruction *pI, ptx_thread_info *thread ) ;
+void norn_impl( const ptx_instruction *pI, ptx_thread_info *thread ) ;
+void not_impl( const ptx_instruction *pI, ptx_thread_info *thread ) ;
+void or_impl( const ptx_instruction *pI, ptx_thread_info *thread ) ;
+void orn_impl( const ptx_instruction *pI, ptx_thread_info *thread ) ;
+void pmevent_impl( const ptx_instruction *pI, ptx_thread_info *thread ) ;
+void popc_impl( const ptx_instruction *pI, ptx_thread_info *thread ) ;
+void prefetch_impl( const ptx_instruction *pI, ptx_thread_info *thread ) ;
+void prefetchu_impl( const ptx_instruction *pI, ptx_thread_info *thread ) ;
+void prmt_impl( const ptx_instruction *pI, ptx_thread_info *thread ) ;
+void rcp_impl( const ptx_instruction *pI, ptx_thread_info *thread ) ;
+void red_impl( const ptx_instruction *pI, ptx_thread_info *thread ) ;
+void rem_impl( const ptx_instruction *pI, ptx_thread_info *thread ) ;
+void ret_impl( const ptx_instruction *pI, ptx_thread_info *thread ) ;
+void retp_impl( const ptx_instruction *pI, ptx_thread_info *thread );
+void rsqrt_impl( const ptx_instruction *pI, ptx_thread_info *thread ) ;
+void sad_impl( const ptx_instruction *pI, ptx_thread_info *thread ) ;
+void selp_impl( const ptx_instruction *pI, ptx_thread_info *thread ) ;
+void setp_impl( const ptx_instruction *pI, ptx_thread_info *thread ) ;
+void set_impl( const ptx_instruction *pI, ptx_thread_info *thread ) ;
+void shl_impl( const ptx_instruction *pI, ptx_thread_info *thread ) ;
+void shr_impl( const ptx_instruction *pI, ptx_thread_info *thread );
+void sin_impl( const ptx_instruction *pI, ptx_thread_info *thread ) ;
+void slct_impl( const ptx_instruction *pI, ptx_thread_info *thread ) ;
+void sqrt_impl( const ptx_instruction *pI, ptx_thread_info *thread ) ;
+void ssy_impl( const ptx_instruction *pI, ptx_thread_info *thread ) ;
+void st_impl( const ptx_instruction *pI, ptx_thread_info *thread ) ;
+void sub_impl( const ptx_instruction *pI, ptx_thread_info *thread ) ;
+void nop_impl( const ptx_instruction *pI, ptx_thread_info *thread ) ;
+void subc_impl( const ptx_instruction *pI, ptx_thread_info *thread ) ;
+void suld_impl( const ptx_instruction *pI, ptx_thread_info *thread ) ;
+void sured_impl( const ptx_instruction *pI, ptx_thread_info *thread ) ;
+void sust_impl( const ptx_instruction *pI, ptx_thread_info *thread ) ;
+void suq_impl( const ptx_instruction *pI, ptx_thread_info *thread ) ;
+void tex_impl( const ptx_instruction *pI, ptx_thread_info *thread ) ;
+void txq_impl( const ptx_instruction *pI, ptx_thread_info *thread ) ;
+void trap_impl( const ptx_instruction *pI, ptx_thread_info *thread ) ;
+void vabsdiff_impl( const ptx_instruction *pI, ptx_thread_info *thread ) ;
+void vadd_impl( const ptx_instruction *pI, ptx_thread_info *thread ) ;
+void vmad_impl( const ptx_instruction *pI, ptx_thread_info *thread ) ;
+void vmax_impl( const ptx_instruction *pI, ptx_thread_info *thread ) ;
+void vmin_impl( const ptx_instruction *pI, ptx_thread_info *thread ) ;
+void vset_impl( const ptx_instruction *pI, ptx_thread_info *thread ) ;
+void vshl_impl( const ptx_instruction *pI, ptx_thread_info *thread ) ;
+void vshr_impl( const ptx_instruction *pI, ptx_thread_info *thread ) ;
+void vsub_impl( const ptx_instruction *pI, ptx_thread_info *thread ) ;
+void vote_impl( const ptx_instruction *pI, ptx_thread_info *thread ) ;
+void xor_impl( const ptx_instruction *pI, ptx_thread_info *thread ) ;
+#endif
diff --git a/cuda-sim/lex.ptx_.c b/cuda-sim/lex.ptx_.c
new file mode 100644
--- /dev/null
+++ b/cuda-sim/lex.ptx_.c
@@ -0,0 +1,4120 @@
+#line 2 "lex.ptx_.c"
+
+#line 4 "lex.ptx_.c"
+
+#define  YY_INT_ALIGNED short int
+
+/* A lexical scanner generated by flex */
+
+#define yy_create_buffer ptx__create_buffer
+#define yy_delete_buffer ptx__delete_buffer
+#define yy_flex_debug ptx__flex_debug
+#define yy_init_buffer ptx__init_buffer
+#define yy_flush_buffer ptx__flush_buffer
+#define yy_load_buffer_state ptx__load_buffer_state
+#define yy_switch_to_buffer ptx__switch_to_buffer
+#define yyin ptx_in
+#define yyleng ptx_leng
+#define yylex ptx_lex
+#define yylineno ptx_lineno
+#define yyout ptx_out
+#define yyrestart ptx_restart
+#define yytext ptx_text
+#define yywrap ptx_wrap
+#define yyalloc ptx_alloc
+#define yyrealloc ptx_realloc
+#define yyfree ptx_free
+
+#define FLEX_SCANNER
+#define YY_FLEX_MAJOR_VERSION 2
+#define YY_FLEX_MINOR_VERSION 5
+#define YY_FLEX_SUBMINOR_VERSION 35
+#if YY_FLEX_SUBMINOR_VERSION > 0
+#define FLEX_BETA
+#endif
+
+/* First, we deal with  platform-specific or compiler-specific issues. */
+
+/* begin standard C headers. */
+#include <stdio.h>
+#include <string.h>
+#include <errno.h>
+#include <stdlib.h>
+
+/* end standard C headers. */
+
+/* flex integer type definitions */
+
+#ifndef FLEXINT_H
+#define FLEXINT_H
+
+/* C99 systems have <inttypes.h>. Non-C99 systems may or may not. */
+
+#if defined (__STDC_VERSION__) && __STDC_VERSION__ >= 199901L
+
+/* C99 says to define __STDC_LIMIT_MACROS before including stdint.h,
+ * if you want the limit (max/min) macros for int types. 
+ */
+#ifndef __STDC_LIMIT_MACROS
+#define __STDC_LIMIT_MACROS 1
+#endif
+
+#include <inttypes.h>
+typedef int8_t flex_int8_t;
+typedef uint8_t flex_uint8_t;
+typedef int16_t flex_int16_t;
+typedef uint16_t flex_uint16_t;
+typedef int32_t flex_int32_t;
+typedef uint32_t flex_uint32_t;
+#else
+typedef signed char flex_int8_t;
+typedef short int flex_int16_t;
+typedef int flex_int32_t;
+typedef unsigned char flex_uint8_t; 
+typedef unsigned short int flex_uint16_t;
+typedef unsigned int flex_uint32_t;
+
+/* Limits of integral types. */
+#ifndef INT8_MIN
+#define INT8_MIN               (-128)
+#endif
+#ifndef INT16_MIN
+#define INT16_MIN              (-32767-1)
+#endif
+#ifndef INT32_MIN
+#define INT32_MIN              (-2147483647-1)
+#endif
+#ifndef INT8_MAX
+#define INT8_MAX               (127)
+#endif
+#ifndef INT16_MAX
+#define INT16_MAX              (32767)
+#endif
+#ifndef INT32_MAX
+#define INT32_MAX              (2147483647)
+#endif
+#ifndef UINT8_MAX
+#define UINT8_MAX              (255U)
+#endif
+#ifndef UINT16_MAX
+#define UINT16_MAX             (65535U)
+#endif
+#ifndef UINT32_MAX
+#define UINT32_MAX             (4294967295U)
+#endif
+
+#endif /* ! C99 */
+
+#endif /* ! FLEXINT_H */
+
+#ifdef __cplusplus
+
+/* The "const" storage-class-modifier is valid. */
+#define YY_USE_CONST
+
+#else	/* ! __cplusplus */
+
+/* C99 requires __STDC__ to be defined as 1. */
+#if defined (__STDC__)
+
+#define YY_USE_CONST
+
+#endif	/* defined (__STDC__) */
+#endif	/* ! __cplusplus */
+
+#ifdef YY_USE_CONST
+#define yyconst const
+#else
+#define yyconst
+#endif
+
+/* Returned upon end-of-file. */
+#define YY_NULL 0
+
+/* Promotes a possibly negative, possibly signed char to an unsigned
+ * integer for use as an array index.  If the signed char is negative,
+ * we want to instead treat it as an 8-bit unsigned char, hence the
+ * double cast.
+ */
+#define YY_SC_TO_UI(c) ((unsigned int) (unsigned char) c)
+
+/* Enter a start condition.  This macro really ought to take a parameter,
+ * but we do it the disgusting crufty way forced on us by the ()-less
+ * definition of BEGIN.
+ */
+#define BEGIN (yy_start) = 1 + 2 *
+
+/* Translate the current start state into a value that can be later handed
+ * to BEGIN to return to the state.  The YYSTATE alias is for lex
+ * compatibility.
+ */
+#define YY_START (((yy_start) - 1) / 2)
+#define YYSTATE YY_START
+
+/* Action number for EOF rule of a given start state. */
+#define YY_STATE_EOF(state) (YY_END_OF_BUFFER + state + 1)
+
+/* Special action meaning "start processing a new file". */
+#define YY_NEW_FILE ptx_restart(ptx_in  )
+
+#define YY_END_OF_BUFFER_CHAR 0
+
+/* Size of default input buffer. */
+#ifndef YY_BUF_SIZE
+#ifdef __ia64__
+/* On IA-64, the buffer size is 16k, not 8k.
+ * Moreover, YY_BUF_SIZE is 2*YY_READ_BUF_SIZE in the general case.
+ * Ditto for the __ia64__ case accordingly.
+ */
+#define YY_BUF_SIZE 32768
+#else
+#define YY_BUF_SIZE 16384
+#endif /* __ia64__ */
+#endif
+
+/* The state buf must be large enough to hold one state per character in the main buffer.
+ */
+#define YY_STATE_BUF_SIZE   ((YY_BUF_SIZE + 2) * sizeof(yy_state_type))
+
+#ifndef YY_TYPEDEF_YY_BUFFER_STATE
+#define YY_TYPEDEF_YY_BUFFER_STATE
+typedef struct yy_buffer_state *YY_BUFFER_STATE;
+#endif
+
+extern int ptx_leng;
+
+extern FILE *ptx_in, *ptx_out;
+
+#define EOB_ACT_CONTINUE_SCAN 0
+#define EOB_ACT_END_OF_FILE 1
+#define EOB_ACT_LAST_MATCH 2
+
+    /* Note: We specifically omit the test for yy_rule_can_match_eol because it requires
+     *       access to the local variable yy_act. Since yyless() is a macro, it would break
+     *       existing scanners that call yyless() from OUTSIDE ptx_lex. 
+     *       One obvious solution it to make yy_act a global. I tried that, and saw
+     *       a 5% performance hit in a non-ptx_lineno scanner, because yy_act is
+     *       normally declared as a register variable-- so it is not worth it.
+     */
+    #define  YY_LESS_LINENO(n) \
+            do { \
+                int yyl;\
+                for ( yyl = n; yyl < ptx_leng; ++yyl )\
+                    if ( ptx_text[yyl] == '\n' )\
+                        --ptx_lineno;\
+            }while(0)
+    
+/* Return all but the first "n" matched characters back to the input stream. */
+#define yyless(n) \
+	do \
+		{ \
+		/* Undo effects of setting up ptx_text. */ \
+        int yyless_macro_arg = (n); \
+        YY_LESS_LINENO(yyless_macro_arg);\
+		*yy_cp = (yy_hold_char); \
+		YY_RESTORE_YY_MORE_OFFSET \
+		(yy_c_buf_p) = yy_cp = yy_bp + yyless_macro_arg - YY_MORE_ADJ; \
+		YY_DO_BEFORE_ACTION; /* set up ptx_text again */ \
+		} \
+	while ( 0 )
+
+#define unput(c) yyunput( c, (yytext_ptr)  )
+
+#ifndef YY_TYPEDEF_YY_SIZE_T
+#define YY_TYPEDEF_YY_SIZE_T
+typedef size_t yy_size_t;
+#endif
+
+#ifndef YY_STRUCT_YY_BUFFER_STATE
+#define YY_STRUCT_YY_BUFFER_STATE
+struct yy_buffer_state
+	{
+	FILE *yy_input_file;
+
+	char *yy_ch_buf;		/* input buffer */
+	char *yy_buf_pos;		/* current position in input buffer */
+
+	/* Size of input buffer in bytes, not including room for EOB
+	 * characters.
+	 */
+	yy_size_t yy_buf_size;
+
+	/* Number of characters read into yy_ch_buf, not including EOB
+	 * characters.
+	 */
+	int yy_n_chars;
+
+	/* Whether we "own" the buffer - i.e., we know we created it,
+	 * and can realloc() it to grow it, and should free() it to
+	 * delete it.
+	 */
+	int yy_is_our_buffer;
+
+	/* Whether this is an "interactive" input source; if so, and
+	 * if we're using stdio for input, then we want to use getc()
+	 * instead of fread(), to make sure we stop fetching input after
+	 * each newline.
+	 */
+	int yy_is_interactive;
+
+	/* Whether we're considered to be at the beginning of a line.
+	 * If so, '^' rules will be active on the next match, otherwise
+	 * not.
+	 */
+	int yy_at_bol;
+
+    int yy_bs_lineno; /**< The line count. */
+    int yy_bs_column; /**< The column count. */
+    
+	/* Whether to try to fill the input buffer when we reach the
+	 * end of it.
+	 */
+	int yy_fill_buffer;
+
+	int yy_buffer_status;
+
+#define YY_BUFFER_NEW 0
+#define YY_BUFFER_NORMAL 1
+	/* When an EOF's been seen but there's still some text to process
+	 * then we mark the buffer as YY_EOF_PENDING, to indicate that we
+	 * shouldn't try reading from the input source any more.  We might
+	 * still have a bunch of tokens to match, though, because of
+	 * possible backing-up.
+	 *
+	 * When we actually see the EOF, we change the status to "new"
+	 * (via ptx_restart()), so that the user can continue scanning by
+	 * just pointing ptx_in at a new input file.
+	 */
+#define YY_BUFFER_EOF_PENDING 2
+
+	};
+#endif /* !YY_STRUCT_YY_BUFFER_STATE */
+
+/* Stack of input buffers. */
+static size_t yy_buffer_stack_top = 0; /**< index of top of stack. */
+static size_t yy_buffer_stack_max = 0; /**< capacity of stack. */
+static YY_BUFFER_STATE * yy_buffer_stack = 0; /**< Stack as an array. */
+
+/* We provide macros for accessing buffer states in case in the
+ * future we want to put the buffer states in a more general
+ * "scanner state".
+ *
+ * Returns the top of the stack, or NULL.
+ */
+#define YY_CURRENT_BUFFER ( (yy_buffer_stack) \
+                          ? (yy_buffer_stack)[(yy_buffer_stack_top)] \
+                          : NULL)
+
+/* Same as previous macro, but useful when we know that the buffer stack is not
+ * NULL or when we need an lvalue. For internal use only.
+ */
+#define YY_CURRENT_BUFFER_LVALUE (yy_buffer_stack)[(yy_buffer_stack_top)]
+
+/* yy_hold_char holds the character lost when ptx_text is formed. */
+static char yy_hold_char;
+static int yy_n_chars;		/* number of characters read into yy_ch_buf */
+int ptx_leng;
+
+/* Points to current character in buffer. */
+static char *yy_c_buf_p = (char *) 0;
+static int yy_init = 0;		/* whether we need to initialize */
+static int yy_start = 0;	/* start state number */
+
+/* Flag which is used to allow ptx_wrap()'s to do buffer switches
+ * instead of setting up a fresh ptx_in.  A bit of a hack ...
+ */
+static int yy_did_buffer_switch_on_eof;
+
+void ptx_restart (FILE *input_file  );
+void ptx__switch_to_buffer (YY_BUFFER_STATE new_buffer  );
+YY_BUFFER_STATE ptx__create_buffer (FILE *file,int size  );
+void ptx__delete_buffer (YY_BUFFER_STATE b  );
+void ptx__flush_buffer (YY_BUFFER_STATE b  );
+void ptx_push_buffer_state (YY_BUFFER_STATE new_buffer  );
+void ptx_pop_buffer_state (void );
+
+static void ptx_ensure_buffer_stack (void );
+static void ptx__load_buffer_state (void );
+static void ptx__init_buffer (YY_BUFFER_STATE b,FILE *file  );
+
+#define YY_FLUSH_BUFFER ptx__flush_buffer(YY_CURRENT_BUFFER )
+
+YY_BUFFER_STATE ptx__scan_buffer (char *base,yy_size_t size  );
+YY_BUFFER_STATE ptx__scan_string (yyconst char *yy_str  );
+YY_BUFFER_STATE ptx__scan_bytes (yyconst char *bytes,int len  );
+
+void *ptx_alloc (yy_size_t  );
+void *ptx_realloc (void *,yy_size_t  );
+void ptx_free (void *  );
+
+#define yy_new_buffer ptx__create_buffer
+
+#define yy_set_interactive(is_interactive) \
+	{ \
+	if ( ! YY_CURRENT_BUFFER ){ \
+        ptx_ensure_buffer_stack (); \
+		YY_CURRENT_BUFFER_LVALUE =    \
+            ptx__create_buffer(ptx_in,YY_BUF_SIZE ); \
+	} \
+	YY_CURRENT_BUFFER_LVALUE->yy_is_interactive = is_interactive; \
+	}
+
+#define yy_set_bol(at_bol) \
+	{ \
+	if ( ! YY_CURRENT_BUFFER ){\
+        ptx_ensure_buffer_stack (); \
+		YY_CURRENT_BUFFER_LVALUE =    \
+            ptx__create_buffer(ptx_in,YY_BUF_SIZE ); \
+	} \
+	YY_CURRENT_BUFFER_LVALUE->yy_at_bol = at_bol; \
+	}
+
+#define YY_AT_BOL() (YY_CURRENT_BUFFER_LVALUE->yy_at_bol)
+
+/* Begin user sect3 */
+
+#define ptx_wrap(n) 1
+#define YY_SKIP_YYWRAP
+
+typedef unsigned char YY_CHAR;
+
+FILE *ptx_in = (FILE *) 0, *ptx_out = (FILE *) 0;
+
+typedef int yy_state_type;
+
+extern int ptx_lineno;
+
+int ptx_lineno = 1;
+
+extern char *ptx_text;
+#define yytext_ptr ptx_text
+
+static yy_state_type yy_get_previous_state (void );
+static yy_state_type yy_try_NUL_trans (yy_state_type current_state  );
+static int yy_get_next_buffer (void );
+static void yy_fatal_error (yyconst char msg[]  );
+
+/* Done after the current pattern has been matched and before the
+ * corresponding action - sets up ptx_text.
+ */
+#define YY_DO_BEFORE_ACTION \
+	(yytext_ptr) = yy_bp; \
+	ptx_leng = (size_t) (yy_cp - yy_bp); \
+	(yy_hold_char) = *yy_cp; \
+	*yy_cp = '\0'; \
+	(yy_c_buf_p) = yy_cp;
+
+#define YY_NUM_RULES 289
+#define YY_END_OF_BUFFER 290
+/* This struct is not used in this scanner,
+   but its presence is necessary. */
+struct yy_trans_info
+	{
+	flex_int32_t yy_verify;
+	flex_int32_t yy_nxt;
+	};
+static yyconst flex_int16_t yy_accept[1289] =
+    {   0,
+        0,    0,  286,  286,    0,    0,    0,    0,    0,    0,
+      290,  288,  276,  274,  275,  268,  284,  288,  288,  264,
+      265,  256,  257,  255,  271,  272,  155,  155,  266,  267,
+      262,  269,  263,  258,  149,  149,  260,  261,  149,  149,
+      149,  149,  149,  149,  149,  149,  149,  149,  149,  149,
+      149,  149,  149,  149,  149,  278,  259,  270,  286,  286,
+      285,  286,  286,  286,  286,  286,  286,  286,  286,  286,
+      286,  286,  286,  286,  286,  286,  286,  286,  281,  281,
+      283,  282,  281,  281,  281,  281,  281,  281,  281,  281,
+      281,  281,  281,  281,  281,  281,  281,  281,  281,  272,
+
+      277,    0,  274,  150,  150,  150,  150,  150,  150,  150,
+      150,  150,  150,  150,  155,  249,  250,  251,    0,    0,
+        0,    0,    0,    0,    0,    0,    0,    0,    0,    0,
+        0,    0,    0,    0,    0,    0,    0,    0,    0,  252,
+      253,  254,  279,  273,    0,  153,  155,    0,    0,    0,
+      155,    0,  149,  149,  149,  149,  149,  149,  149,  149,
+      149,  149,  149,  149,  149,  149,  149,  149,  149,  149,
+       28,  149,  149,  149,  149,  149,  149,  149,  149,  149,
+       45,  149,  149,  149,  149,  149,  149,  149,  149,  149,
+      149,  149,  149,  149,   68,  149,  149,  149,  149,  149,
+
+      149,  149,  149,  149,  286,  286,  286,  286,  286,  286,
+      286,  286,  286,  286,  286,  286,  286,  286,  286,  286,
+      286,  286,   28,  286,  286,  286,  286,  286,  286,  286,
+      286,  286,   45,  286,  286,  286,  286,  286,  286,  286,
+      286,  286,  286,  286,  286,  286,   68,  286,  286,  286,
+      286,  286,  286,  286,  286,  286,  281,  281,  280,  281,
+      281,  281,  281,  281,  281,  281,  281,  281,  281,  281,
+      281,  281,  281,  281,  281,   28,  281,  281,  281,  281,
+      281,  281,  281,  281,  281,   45,  281,  281,  281,  281,
+      281,  281,  281,  281,  281,  281,  281,  281,  281,   68,
+
+      281,  281,  281,  281,  281,  281,  281,  281,  281,    0,
+      150,  150,  150,  150,  150,  150,  150,  150,  150,  150,
+      150,  150,  150,  150,  246,  247,  248,    0,    0,    0,
+        0,    0,    0,    0,    0,  170,    0,    0,    0,    0,
+      229,  199,  230,    0,  231,    0,  233,    0,    0,  193,
+        0,    0,    0,    0,    0,    0,    0,    0,  198,  223,
+      197,    0,  204,  205,    0,  196,  202,  203,  195,  232,
+        0,    0,    0,  194,    0,    0,  237,    0,    0,    0,
+        0,  212,  210,  213,  211,    0,    0,    0,  158,    0,
+        0,  200,    0,    0,    0,    0,    0,    0,    0,  228,
+
+        0,    0,    0,  162,    0,  180,  181,  182,    0,    0,
+      234,    0,  235,    0,  273,  151,  153,  154,    0,    0,
+      152,  149,    1,    2,    5,  149,  149,    9,   10,   12,
+      149,  149,   13,  149,   18,  149,   20,   21,   23,   24,
+      149,   26,  149,    0,  149,   30,   31,   33,   35,  149,
+       37,   38,   40,  149,   41,   90,  149,   44,   46,  149,
+      149,  149,  149,   52,   53,   54,   55,  149,   58,  149,
+       61,   62,   63,   64,  149,  149,   67,    0,  149,   70,
+      149,   75,  149,   76,  149,   77,  149,  149,  149,  149,
+      149,  149,  149,  149,   89,  286,    1,    2,    5,  286,
+
+      286,    9,   10,   12,  286,  286,   13,  286,   18,  286,
+       20,   21,   23,   24,  286,   26,  286,  286,   30,   31,
+       33,   35,  286,   37,   38,   40,  286,   41,   90,  286,
+       44,   46,  286,  286,  286,  286,   52,   53,   54,   55,
+      286,   58,  286,   61,   62,   63,   64,  286,  286,   67,
+      286,   70,  286,   75,  286,   76,  286,   77,  286,  286,
+      286,  286,  286,  286,  286,  286,   89,  281,    1,    2,
+        5,  281,  281,    9,   10,   12,  281,  281,   13,  281,
+       18,  281,   20,   21,   23,   24,  281,   26,  281,  281,
+       30,   31,   33,   35,  281,   37,   38,   40,  281,   41,
+
+       90,  281,   44,   46,  281,  281,  281,  281,   52,   53,
+       54,   55,  281,   58,  281,   61,   62,   63,   64,  281,
+      281,   67,  281,   70,  281,   75,  281,   76,  281,   77,
+      281,  281,  281,  281,  281,  281,  281,  281,   89,    0,
+      150,  150,  150,  150,  150,  150,  150,  150,  150,  150,
+      144,  150,  146,  150,  227,  241,    0,  221,  236,  220,
+        0,  171,  172,  173,    0,    0,    0,    0,    0,    0,
+      239,    0,  224,  243,    0,  184,    0,    0,    0,  166,
+      167,  168,    0,    0,  214,    0,    0,  189,    0,  188,
+        0,  242,  187,  106,  186,  245,  244,  191,  215,  185,
+
+      201,  190,    0,    0,    0,  127,  113,    0,  208,  206,
+      209,  207,  159,  160,  161,    0,  192,    0,    0,    0,
+        0,    0,  225,    0,  121,  163,  164,  165,  217,    0,
+        0,    0,  238,  154,    0,    0,  152,  149,    4,    3,
+        6,    7,    0,  149,  149,  149,   14,  149,   16,   19,
+       22,   25,  149,    0,  149,  149,   34,  149,  149,  149,
+       43,  149,   48,  149,   51,   56,  149,   59,   60,   65,
+       66,    0,  149,   71,   72,  149,  149,   78,  149,   80,
+       81,   82,   83,   88,   84,   85,   86,   87,  286,    4,
+        3,    6,    7,  286,  286,  286,   14,  286,   16,   19,
+
+       22,   25,  286,  286,  286,   34,  286,  286,  286,   43,
+      286,   48,  286,   51,   56,  286,   59,   60,   65,   66,
+      286,   71,   72,  286,  286,   78,  286,   80,   81,   82,
+       83,   88,   84,   85,   86,   87,  281,    4,    3,    6,
+        7,  281,  281,  281,   14,  281,   16,   19,   22,   25,
+      281,  281,  281,   34,  281,  281,  281,   43,  281,   48,
+      281,   51,   56,  281,   59,   60,   65,   66,  281,   71,
+       72,  281,  281,   78,  281,   80,   81,   82,   83,   88,
+       84,   85,   86,   87,    0,  150,  150,  150,  150,  150,
+      150,  150,  150,  141,  150,  145,  150,    0,    0,    0,
+
+        0,    0,  174,    0,   95,    0,    0,    0,  240,  226,
+        0,  169,  102,  219,  103,    0,  183,    0,    0,    0,
+        0,    0,  176,    0,    0,    0,    0,  117,    0,  119,
+        0,    0,    0,    0,    0,  216,    0,    0,  149,    0,
+      149,   11,   91,   15,   17,  149,    0,  149,   32,  149,
+       39,   42,  149,  149,   57,    0,  149,   73,   74,  149,
+      286,  286,   11,   91,   15,   17,  286,  286,   32,  286,
+       39,   42,  286,  286,   57,  286,   73,   74,  286,  281,
+      281,   11,   91,   15,   17,  281,  281,   32,  281,   39,
+       42,  281,  281,   57,  281,   73,   74,  281,    0,  128,
+
+      131,  150,  150,  150,  150,  150,  150,  142,  150,  150,
+        0,   93,    0,    0,  175,    0,    0,    0,   99,  100,
+        0,    0,  105,    0,    0,    0,    0,  111,    0,    0,
+        0,    0,    0,    0,    0,    0,    0,  122,    0,    0,
+        0,    0,  149,    0,  149,  149,  149,    0,  149,   36,
+      149,  149,    0,  149,  149,  286,  286,  286,  286,  286,
+       36,  286,  286,  286,  286,  281,  281,  281,  281,  281,
+       36,  281,  281,  281,  281,    0,  150,  150,  133,  150,
+      134,  150,  140,  150,  147,    0,  218,  222,    0,    0,
+        0,    0,    0,  101,  104,    0,    0,    0,    0,  112,
+
+        0,    0,    0,  116,  118,    0,  120,  177,    0,    0,
+        0,    0,  148,    0,  149,  149,  149,    0,  149,   47,
+      149,    0,  149,  149,  286,  286,  286,  286,  286,   47,
+      286,  286,  286,  281,  281,  281,  281,  281,   47,  281,
+      281,  281,    0,  130,  132,  150,  150,  143,    0,    0,
+        0,    0,    0,    0,    0,  108,  109,    0,  114,    0,
+      115,  179,  123,  124,    0,    0,    8,    8,  149,   27,
+        0,  149,   49,    0,  149,   79,  286,    8,  286,   27,
+      286,   49,  286,   79,  281,    8,  281,   27,  281,   49,
+      281,   79,    0,  287,  150,  150,    0,    0,    0,    0,
+
+       98,  126,    0,    0,    0,    0,    0,   92,    0,  149,
+       50,    0,  149,  286,  286,   92,  286,   50,  286,  281,
+       92,  281,   50,  281,  129,  150,    0,    0,    0,    0,
+        0,    0,    0,    0,  156,    0,  149,    0,  149,  286,
+      286,  281,  281,  150,  150,  150,    0,    0,    0,    0,
+        0,    0,  178,    0,   29,   29,   69,   69,   29,   69,
+       29,   69,  135,  138,  139,  136,  137,    0,    0,    0,
+       97,    0,    0,    0,  125,    0,    0,  107,  110,    0,
+       94,   96,    0,    0,    0,    0,  157,    0
+    } ;
+
+static yyconst flex_int32_t yy_ec[256] =
+    {   0,
+        1,    1,    1,    1,    1,    1,    1,    1,    2,    3,
+        1,    1,    1,    1,    1,    1,    1,    1,    1,    1,
+        1,    1,    1,    1,    1,    1,    1,    1,    1,    1,
+        1,    4,    5,    6,    1,    7,    8,    1,    1,    9,
+       10,   11,   12,   13,   14,   15,   16,   17,   18,   19,
+       20,   21,   22,   23,   22,   24,   25,   26,   27,   28,
+       29,   30,    1,   31,   32,   33,   34,   35,   34,   36,
+       37,   37,   37,   37,   37,   37,   37,   37,   37,   38,
+       37,   39,   40,   37,   41,   37,   42,   43,   37,   44,
+       45,    1,   46,    1,   47,    1,   48,   49,   50,   51,
+
+       52,   53,   54,   55,   56,   37,   57,   58,   59,   60,
+       61,   62,   63,   64,   65,   66,   67,   68,   69,   70,
+       71,   72,   73,   74,   75,    1,    1,    1,    1,    1,
+        1,    1,    1,    1,    1,    1,    1,    1,    1,    1,
+        1,    1,    1,    1,    1,    1,    1,    1,    1,    1,
+        1,    1,    1,    1,    1,    1,    1,    1,    1,    1,
+        1,    1,    1,    1,    1,    1,    1,    1,    1,    1,
+        1,    1,    1,    1,    1,    1,    1,    1,    1,    1,
+        1,    1,    1,    1,    1,    1,    1,    1,    1,    1,
+        1,    1,    1,    1,    1,    1,    1,    1,    1,    1,
+
+        1,    1,    1,    1,    1,    1,    1,    1,    1,    1,
+        1,    1,    1,    1,    1,    1,    1,    1,    1,    1,
+        1,    1,    1,    1,    1,    1,    1,    1,    1,    1,
+        1,    1,    1,    1,    1,    1,    1,    1,    1,    1,
+        1,    1,    1,    1,    1,    1,    1,    1,    1,    1,
+        1,    1,    1,    1,    1
+    } ;
+
+static yyconst flex_int32_t yy_meta[76] =
+    {   0,
+        1,    1,    2,    1,    1,    3,    4,    1,    1,    1,
+        5,    1,    1,    1,    1,    1,    6,    6,    6,    6,
+        6,    6,    6,    6,    6,    1,    1,    1,    1,    1,
+        1,    6,    6,    6,    6,    6,    4,    4,    4,    4,
+        4,    4,    4,    4,    1,    1,    4,    6,    6,    6,
+        6,    6,    6,    4,    4,    4,    4,    4,    4,    4,
+        4,    4,    4,    4,    4,    4,    4,    4,    4,    4,
+        4,    4,    1,    1,    1
+    } ;
+
+static yyconst flex_int16_t yy_base[1334] =
+    {   0,
+        0,    0,   74,  143,  212,  281,  346,    0, 1583, 1582,
+     1654, 1657, 1622,    0, 1657, 1657, 1657,    0,   27, 1657,
+     1657, 1657, 1657,   80,  403,   67,  461,   96, 1657, 1657,
+     1657, 1657, 1657, 1657,    0, 1620, 1657, 1657,   92,   42,
+       99, 1595, 1580, 1590, 1583,   37,  113,  102, 1583,   48,
+      101,  120,  118,  168, 1585, 1657, 1657, 1657,    0, 1614,
+     1657,  113,  136,  164, 1588, 1573, 1583, 1576,   77,  178,
+      129, 1576,  176,  186,  233,  179,  193, 1578,    0, 1607,
+     1657, 1621,  193,  202,  245, 1580, 1565, 1575, 1568,  166,
+      256,  158, 1568,  250,  245,  302,  205,  259, 1570, 1614,
+
+     1657, 1598,    0,    0,   28, 1568, 1563, 1578, 1577,  305,
+     1565, 1564, 1566, 1573,  359, 1657, 1569, 1568, 1567,  366,
+      469,  377, 1565,  158,  483,  269,  288, 1556,  383,  100,
+      457, 1551,  300,  475,  533,  267,  367,  509,  307, 1553,
+     1657, 1657, 1657,    0,  549,  588,  599,  180,    0,    0,
+     1657,    0,    0, 1574, 1547, 1560, 1559, 1548, 1544,  234,
+      443, 1549, 1534, 1544, 1539, 1537, 1534,  260, 1553, 1535,
+      640, 1580,   59, 1539, 1537, 1528, 1537, 1534, 1539,  370,
+     1532, 1539, 1528,  235, 1527,  457, 1525, 1536,  190,  328,
+     1526, 1535, 1520, 1512,  715,  462, 1512, 1533, 1517,  310,
+
+      345, 1513,  491, 1514,    0, 1546, 1511, 1524, 1523, 1512,
+     1508,  270,  507, 1513, 1498, 1508, 1503, 1501, 1498,  282,
+     1517, 1499,  535, 1544,  367, 1503, 1501, 1492, 1501, 1498,
+     1503,  514, 1496, 1503, 1492,  381, 1491,  524, 1489, 1500,
+      381,  345, 1490, 1499, 1484, 1476,  369,  614, 1476, 1497,
+     1481,  439,  451, 1477,  493, 1478,    0, 1510, 1657, 1475,
+     1488, 1487, 1476, 1472,  463,  627, 1477, 1462, 1472, 1467,
+     1465, 1462,  410, 1481, 1463,  235, 1508,  390, 1467, 1465,
+     1456, 1465, 1462, 1467,  525, 1460, 1467, 1456,  542, 1455,
+      577, 1453, 1464,  486,  534, 1454, 1463, 1448, 1440, 1499,
+
+      624, 1439, 1460, 1444,  533,  506, 1440,  580, 1441, 1469,
+     1442, 1454, 1433, 1444, 1441, 1438, 1431, 1437, 1439, 1446,
+      640, 1437, 1441, 1427, 1657, 1657, 1657, 1425, 1438,  537,
+      196, 1426, 1464, 1467, 1464, 1657, 1426,  607, 1435, 1416,
+      568, 1657, 1657, 1421, 1657, 1432, 1657, 1429, 1412, 1410,
+      624, 1453, 1456, 1453, 1450, 1414, 1399,  579, 1403, 1408,
+     1401, 1409, 1657, 1657, 1416, 1398, 1414, 1657, 1396, 1657,
+     1392, 1401, 1400,  622, 1406, 1399, 1657, 1393,  579, 1392,
+       92, 1399, 1398, 1397, 1396, 1428, 1431, 1428, 1657,  632,
+     1398, 1657, 1399, 1394, 1381, 1380, 1378, 1378, 1371, 1657,
+
+     1417, 1420, 1417, 1657, 1381, 1657, 1657, 1657, 1372, 1370,
+     1657, 1383, 1657, 1369,    0,  715, 1657,  677,    0,    0,
+     1391, 1393,    0,  631, 1370, 1370,  790,    0, 1368,    0,
+      635, 1365,    0, 1368,    0, 1359,    0, 1376,    0,    0,
+     1357,    0, 1360, 1353, 1352, 1351,    0,  642,    0, 1369,
+        0,    0, 1398, 1365,    0,    0, 1355,    0,    0, 1346,
+     1363, 1359, 1345,    0,    0,    0, 1348, 1345,    0, 1346,
+     1345,    0,    0,    0, 1340, 1339,    0, 1336, 1335, 1352,
+     1350,    0,  640,    0, 1338,    0, 1334, 1347,  545, 1337,
+     1344, 1329,  638, 1345,    0, 1358,    0,  649, 1332, 1332,
+
+      659,    0, 1330,    0,  699, 1327,    0, 1330,    0, 1321,
+        0, 1338,    0,    0, 1319,    0, 1322, 1315, 1314,    0,
+      687,    0, 1332,    0,    0, 1361, 1328,    0,    0, 1318,
+        0,    0, 1309, 1326, 1322, 1308,    0,    0,    0, 1311,
+     1308,    0, 1309, 1308,    0,    0,    0, 1303, 1302,    0,
+     1299, 1316, 1314,    0,  657,    0, 1302,    0, 1298, 1311,
+      699, 1301, 1308, 1293,  690, 1309,    0, 1322,    0,  650,
+     1296, 1296, 1343,    0, 1293,    0,  703, 1290,    0, 1293,
+        0, 1284,    0, 1301,    0,    0, 1282,    0, 1285, 1278,
+     1277,    0,  691,    0, 1295,    0,    0, 1324, 1291,    0,
+
+        0, 1281,    0,    0, 1272, 1289, 1285, 1271,    0,    0,
+        0, 1274, 1271,    0, 1272, 1271,    0,    0,    0, 1266,
+     1265,    0, 1262, 1279, 1277,    0,  700,    0, 1265,    0,
+     1261, 1274,  704, 1264, 1271, 1256,  698, 1272,    0, 1278,
+     1269, 1262, 1253, 1265, 1262, 1262, 1265, 1256, 1260, 1246,
+        0, 1258,    0, 1246, 1657, 1243, 1252, 1657, 1657, 1657,
+     1241, 1657, 1657, 1657, 1246, 1284, 1281, 1241, 1248, 1241,
+     1657, 1233, 1657, 1657, 1233, 1657, 1241, 1229, 1242, 1657,
+     1657, 1657, 1272, 1240, 1657, 1233, 1240, 1657, 1240, 1657,
+     1235, 1657, 1657, 1239, 1657, 1226, 1225, 1657, 1657, 1657,
+
+     1657, 1657, 1236, 1229, 1231, 1657, 1657, 1221, 1657, 1657,
+     1657, 1657, 1657, 1657, 1657, 1218, 1657, 1213, 1214, 1223,
+     1209, 1222, 1657, 1220, 1209, 1657, 1657, 1657, 1211, 1206,
+     1214, 1217, 1657, 1657,    0,    0, 1657, 1221,    0,    0,
+        0,    0, 1202, 1201, 1214, 1207,    0, 1197, 1200,    0,
+        0,    0, 1213, 1199, 1198, 1237,    0, 1209, 1235, 1195,
+        0, 1202,    0, 1201,    0,    0, 1186,    0,    0,    0,
+        0, 1190, 1189,    0,    0, 1198, 1182,    0, 1196,    0,
+        0,    0,    0,    0,    0,    0,    0,    0, 1204,    0,
+        0,    0,    0, 1180, 1193, 1186,    0, 1176, 1179,    0,
+
+        0,    0, 1192, 1178, 1217,    0, 1189, 1215, 1175,    0,
+     1182,    0, 1181,    0,    0, 1166,    0,    0,    0,    0,
+     1170,    0,    0, 1179, 1163,    0, 1177,    0,    0,    0,
+        0,    0,    0,    0,    0,    0, 1185,    0,    0,    0,
+        0, 1161, 1174, 1167,    0, 1157, 1160,    0,    0,    0,
+     1173, 1159, 1198,    0, 1170, 1196, 1156,    0, 1163,    0,
+     1162,    0,    0, 1147,    0,    0,    0,    0, 1151,    0,
+        0, 1160, 1144,    0, 1158,    0,    0,    0,    0,    0,
+        0,    0,    0,    0, 1176, 1150, 1155, 1153, 1148, 1153,
+      707, 1146, 1150,    0, 1138,    0, 1143, 1146, 1137, 1135,
+
+     1134, 1170, 1657, 1143, 1657,  572, 1126, 1120, 1657, 1657,
+     1126, 1657, 1657, 1657, 1657, 1141, 1657, 1130,  709, 1137,
+     1127, 1126, 1657, 1118, 1125, 1126, 1129, 1657, 1130, 1115,
+     1126, 1125, 1116, 1119, 1125, 1657,    0,    0, 1133, 1101,
+     1100,    0, 1122,    0,    0, 1119, 1110, 1109,    0, 1102,
+        0,    0, 1105, 1098,    0, 1105, 1104,    0,    0, 1105,
+     1128, 1088,    0, 1110,    0,    0,   34,   50,    0,  107,
+        0,    0,  265,  322,    0,  331,    0,    0,  357,  414,
+      406,    0,  450,    0,    0,  471,  474,    0,  478,    0,
+        0,  503,  513,    0,  606,    0,    0,  645,  669,  734,
+
+        0,  704,  713,  710,  719,  724,  725,    0,  721,  727,
+      714, 1657,  710,  715, 1657,  727,  719,  736,  748, 1657,
+      725,  728, 1657,  721,  745,  751,  742, 1657,  761,  755,
+      760,  752,  763,  749,  770,  757,  771, 1657,  764,  768,
+        0,    0,  783,  768,  769,  779,  779,  784,  785,    0,
+      768,  787,  790,  791,  787,  802,  782,  792,  792,  797,
+        0,  780,  797,  800,  796,  811,  791,  801,  801,  806,
+        0,  789,  806,  809,  805,  823,  839,  849,    0,  800,
+        0,  797,    0,  824,    0,  811, 1657, 1657,  811,  817,
+      815,  863,  823, 1657, 1657,  842,  837,  841,  845, 1657,
+
+      843,  831,  836, 1657, 1657,  844, 1657, 1657,  838,  847,
+        0,    0,    0,  850,  851,  851,  841,  838,  839,    0,
+      851,  841,  842,  856,  874,  861,  861,  851,  848,    0,
+      860,  850,  864,  882,  869,  869,  859,  856,    0,  868,
+      858,  872,  923,    0,  910,  886,  880,    0,  891,  891,
+      874,  887,  925,  887,  890, 1657, 1657,  891, 1657,  890,
+     1657, 1657, 1657, 1657,    0,    0, 1657,    0,  891,    0,
+      900,  901,  891,  903,  904,    0,  958,    0,  898,    0,
+      907,  898,  910,    0,  964,    0,  904,    0,  913,  903,
+      916,    0,  970, 1657,  917,  929,  912,  914,  918,  928,
+
+     1657, 1657,  929,  930,  931,    0,    0,    0,  926,  927,
+        0,  928,  929,  985,    0,    0,  931,    0,  932,  989,
+        0,  935,    0,  936,    0,  943,  940,  944,  933,  936,
+      939,  940,  952,    0, 1657,  954,  955,  956,  957,  958,
+      959,  960,  961,  951,  963,  964,  945,  966,  948,  955,
+      956,  957, 1657,    0, 1657,    0, 1657,    0,    0,    0,
+        0,    0,    0,    0,    0,    0,    0,  971,  958,  963,
+     1657,  967,  968,    0, 1657,  963,  979, 1657, 1657,    0,
+     1657, 1657,    0,    0,    0,    0, 1657, 1657, 1031, 1037,
+     1043, 1046, 1049, 1055, 1061, 1067, 1039, 1045, 1048, 1073,
+
+     1079, 1085, 1091, 1097, 1103, 1052, 1057, 1109, 1115, 1121,
+     1060, 1063, 1069, 1075, 1093, 1099, 1105, 1117, 1127, 1128,
+     1129, 1135, 1141, 1142, 1143, 1144, 1145, 1146, 1147, 1148,
+     1149, 1150, 1151
+    } ;
+
+static yyconst flex_int16_t yy_def[1334] =
+    {   0,
+     1288,    1, 1289, 1289, 1290, 1290,    1,    7,    7,    7,
+     1288, 1288, 1288, 1291, 1288, 1288, 1288, 1292, 1292, 1288,
+     1288, 1288, 1288, 1288, 1288, 1288, 1288, 1288, 1288, 1288,
+     1288, 1288, 1288, 1288, 1293, 1293, 1288, 1288, 1293, 1293,
+     1293, 1293, 1293, 1293, 1293, 1293, 1293, 1293, 1293, 1293,
+     1293, 1293, 1293, 1293, 1293, 1288, 1288, 1288, 1294, 1294,
+     1288, 1294, 1294, 1294, 1294, 1294, 1294, 1294, 1294, 1294,
+     1294, 1294, 1294, 1294, 1294, 1294, 1294, 1294, 1295, 1295,
+     1288, 1288, 1295, 1295, 1295, 1295, 1295, 1295, 1295, 1295,
+     1295, 1295, 1295, 1295, 1295, 1295, 1295, 1295, 1295, 1288,
+
+     1288, 1288, 1291, 1292, 1292, 1292, 1292, 1292, 1292, 1292,
+     1292, 1292, 1292, 1292, 1288, 1288, 1288, 1288, 1288, 1288,
+     1288, 1288, 1288, 1288, 1288, 1288, 1288, 1288, 1288, 1288,
+     1288, 1288, 1288, 1288, 1288, 1288, 1288, 1288, 1288, 1288,
+     1288, 1288, 1288, 1296, 1288, 1288, 1288, 1288, 1297, 1298,
+     1288, 1299, 1293, 1293, 1293, 1293, 1293, 1293, 1293, 1293,
+     1293, 1293, 1293, 1293, 1293, 1293, 1293, 1293, 1293, 1293,
+     1300, 1293, 1293, 1293, 1293, 1293, 1293, 1293, 1293, 1293,
+     1293, 1293, 1293, 1293, 1293, 1293, 1293, 1293, 1293, 1293,
+     1293, 1293, 1293, 1293, 1301, 1293, 1293, 1293, 1293, 1293,
+
+     1293, 1293, 1293, 1293, 1294, 1294, 1294, 1294, 1294, 1294,
+     1294, 1294, 1294, 1294, 1294, 1294, 1294, 1294, 1294, 1294,
+     1294, 1294, 1302, 1294, 1294, 1294, 1294, 1294, 1294, 1294,
+     1294, 1294, 1294, 1294, 1294, 1294, 1294, 1294, 1294, 1294,
+     1294, 1294, 1294, 1294, 1294, 1294, 1303, 1294, 1294, 1294,
+     1294, 1294, 1294, 1294, 1294, 1294, 1295, 1295, 1288, 1295,
+     1295, 1295, 1295, 1295, 1295, 1295, 1295, 1295, 1295, 1295,
+     1295, 1295, 1295, 1295, 1295, 1304, 1295, 1295, 1295, 1295,
+     1295, 1295, 1295, 1295, 1295, 1295, 1295, 1295, 1295, 1295,
+     1295, 1295, 1295, 1295, 1295, 1295, 1295, 1295, 1295, 1305,
+
+     1295, 1295, 1295, 1295, 1295, 1295, 1295, 1295, 1295, 1288,
+     1292, 1292, 1292, 1292, 1292, 1292, 1292, 1292, 1292, 1292,
+     1292, 1292, 1292, 1292, 1288, 1288, 1288, 1288, 1288, 1288,
+     1288, 1288, 1288, 1288, 1288, 1288, 1288, 1288, 1288, 1288,
+     1288, 1288, 1288, 1288, 1288, 1288, 1288, 1288, 1288, 1288,
+     1288, 1288, 1288, 1288, 1288, 1288, 1288, 1288, 1288, 1288,
+     1288, 1288, 1288, 1288, 1288, 1288, 1288, 1288, 1288, 1288,
+     1288, 1288, 1288, 1288, 1288, 1288, 1288, 1288, 1288, 1288,
+     1288, 1288, 1288, 1288, 1288, 1288, 1288, 1288, 1288, 1288,
+     1288, 1288, 1288, 1288, 1288, 1288, 1288, 1288, 1288, 1288,
+
+     1288, 1288, 1288, 1288, 1288, 1288, 1288, 1288, 1288, 1288,
+     1288, 1288, 1288, 1288, 1296, 1288, 1288, 1288, 1306, 1307,
+     1299, 1293, 1293, 1293, 1293, 1293, 1308, 1293, 1293, 1293,
+     1293, 1293, 1293, 1293, 1293, 1293, 1293, 1293, 1293, 1293,
+     1293, 1293, 1293, 1288, 1293, 1293, 1293, 1293, 1293, 1293,
+     1293, 1293, 1293, 1293, 1293, 1293, 1293, 1293, 1293, 1293,
+     1293, 1293, 1293, 1293, 1293, 1293, 1293, 1293, 1293, 1293,
+     1293, 1293, 1293, 1293, 1293, 1293, 1293, 1288, 1293, 1293,
+     1293, 1293, 1293, 1293, 1293, 1293, 1293, 1293, 1293, 1293,
+     1293, 1293, 1293, 1293, 1293, 1294, 1294, 1294, 1294, 1294,
+
+     1309, 1294, 1294, 1294, 1294, 1294, 1294, 1294, 1294, 1294,
+     1294, 1294, 1294, 1294, 1294, 1294, 1294, 1294, 1294, 1294,
+     1294, 1294, 1294, 1294, 1294, 1294, 1294, 1294, 1294, 1294,
+     1294, 1294, 1294, 1294, 1294, 1294, 1294, 1294, 1294, 1294,
+     1294, 1294, 1294, 1294, 1294, 1294, 1294, 1294, 1294, 1294,
+     1294, 1294, 1294, 1294, 1294, 1294, 1294, 1294, 1294, 1294,
+     1294, 1294, 1294, 1294, 1294, 1294, 1294, 1295, 1295, 1295,
+     1295, 1295, 1310, 1295, 1295, 1295, 1295, 1295, 1295, 1295,
+     1295, 1295, 1295, 1295, 1295, 1295, 1295, 1295, 1295, 1295,
+     1295, 1295, 1295, 1295, 1295, 1295, 1295, 1295, 1295, 1295,
+
+     1295, 1295, 1295, 1295, 1295, 1295, 1295, 1295, 1295, 1295,
+     1295, 1295, 1295, 1295, 1295, 1295, 1295, 1295, 1295, 1295,
+     1295, 1295, 1295, 1295, 1295, 1295, 1295, 1295, 1295, 1295,
+     1295, 1295, 1295, 1295, 1295, 1295, 1295, 1295, 1295, 1288,
+     1292, 1292, 1292, 1292, 1292, 1292, 1292, 1292, 1292, 1292,
+     1292, 1292, 1292, 1292, 1288, 1288, 1288, 1288, 1288, 1288,
+     1288, 1288, 1288, 1288, 1288, 1288, 1288, 1288, 1288, 1288,
+     1288, 1288, 1288, 1288, 1288, 1288, 1288, 1288, 1288, 1288,
+     1288, 1288, 1288, 1288, 1288, 1288, 1288, 1288, 1288, 1288,
+     1288, 1288, 1288, 1288, 1288, 1288, 1288, 1288, 1288, 1288,
+
+     1288, 1288, 1288, 1288, 1288, 1288, 1288, 1288, 1288, 1288,
+     1288, 1288, 1288, 1288, 1288, 1288, 1288, 1288, 1288, 1288,
+     1288, 1288, 1288, 1288, 1288, 1288, 1288, 1288, 1288, 1288,
+     1288, 1288, 1288, 1288, 1311, 1312, 1288, 1293, 1293, 1293,
+     1293, 1293, 1288, 1293, 1293, 1293, 1293, 1293, 1293, 1293,
+     1293, 1293, 1293, 1288, 1293, 1293, 1293, 1293, 1293, 1293,
+     1293, 1293, 1293, 1293, 1293, 1293, 1293, 1293, 1293, 1293,
+     1293, 1288, 1293, 1293, 1293, 1293, 1293, 1293, 1293, 1293,
+     1293, 1293, 1293, 1293, 1293, 1293, 1293, 1293, 1294, 1294,
+     1294, 1294, 1294, 1294, 1294, 1294, 1294, 1294, 1294, 1294,
+
+     1294, 1294, 1294, 1294, 1294, 1294, 1294, 1294, 1294, 1294,
+     1294, 1294, 1294, 1294, 1294, 1294, 1294, 1294, 1294, 1294,
+     1294, 1294, 1294, 1294, 1294, 1294, 1294, 1294, 1294, 1294,
+     1294, 1294, 1294, 1294, 1294, 1294, 1295, 1295, 1295, 1295,
+     1295, 1295, 1295, 1295, 1295, 1295, 1295, 1295, 1295, 1295,
+     1295, 1295, 1295, 1295, 1295, 1295, 1295, 1295, 1295, 1295,
+     1295, 1295, 1295, 1295, 1295, 1295, 1295, 1295, 1295, 1295,
+     1295, 1295, 1295, 1295, 1295, 1295, 1295, 1295, 1295, 1295,
+     1295, 1295, 1295, 1295, 1288, 1292, 1292, 1292, 1292, 1292,
+     1292, 1292, 1292, 1292, 1292, 1292, 1292, 1288, 1288, 1288,
+
+     1288, 1288, 1288, 1288, 1288, 1288, 1288, 1288, 1288, 1288,
+     1288, 1288, 1288, 1288, 1288, 1288, 1288, 1288, 1288, 1288,
+     1288, 1288, 1288, 1288, 1288, 1288, 1288, 1288, 1288, 1288,
+     1288, 1288, 1288, 1288, 1288, 1288, 1313, 1314, 1293, 1288,
+     1293, 1293, 1293, 1293, 1293, 1293, 1288, 1293, 1293, 1293,
+     1293, 1293, 1293, 1293, 1293, 1288, 1293, 1293, 1293, 1293,
+     1294, 1294, 1294, 1294, 1294, 1294, 1294, 1294, 1294, 1294,
+     1294, 1294, 1294, 1294, 1294, 1294, 1294, 1294, 1294, 1295,
+     1295, 1295, 1295, 1295, 1295, 1295, 1295, 1295, 1295, 1295,
+     1295, 1295, 1295, 1295, 1295, 1295, 1295, 1295, 1288, 1292,
+
+     1292, 1292, 1292, 1292, 1292, 1292, 1292, 1292, 1292, 1292,
+     1288, 1288, 1288, 1288, 1288, 1288, 1288, 1288, 1288, 1288,
+     1288, 1288, 1288, 1288, 1288, 1288, 1288, 1288, 1288, 1288,
+     1288, 1288, 1288, 1288, 1288, 1288, 1288, 1288, 1288, 1288,
+     1315, 1316, 1293, 1288, 1293, 1293, 1293, 1288, 1293, 1293,
+     1293, 1293, 1288, 1293, 1293, 1294, 1294, 1294, 1294, 1294,
+     1294, 1294, 1294, 1294, 1294, 1295, 1295, 1295, 1295, 1295,
+     1295, 1295, 1295, 1295, 1295, 1288, 1292, 1292, 1292, 1292,
+     1292, 1292, 1292, 1292, 1292, 1288, 1288, 1288, 1288, 1288,
+     1288, 1288, 1288, 1288, 1288, 1288, 1288, 1288, 1288, 1288,
+
+     1288, 1288, 1288, 1288, 1288, 1288, 1288, 1288, 1288, 1288,
+     1317, 1318, 1293, 1288, 1293, 1293, 1293, 1288, 1293, 1293,
+     1293, 1288, 1293, 1293, 1294, 1294, 1294, 1294, 1294, 1294,
+     1294, 1294, 1294, 1295, 1295, 1295, 1295, 1295, 1295, 1295,
+     1295, 1295, 1319, 1292, 1292, 1292, 1292, 1292, 1288, 1288,
+     1288, 1288, 1288, 1288, 1288, 1288, 1288, 1288, 1288, 1288,
+     1288, 1288, 1288, 1288, 1320, 1321, 1288, 1293, 1293, 1293,
+     1288, 1293, 1293, 1288, 1293, 1293, 1322, 1294, 1294, 1294,
+     1294, 1294, 1294, 1294, 1323, 1295, 1295, 1295, 1295, 1295,
+     1295, 1295, 1319, 1288, 1292, 1292, 1288, 1288, 1288, 1288,
+
+     1288, 1288, 1288, 1288, 1288, 1324, 1325, 1293, 1288, 1293,
+     1293, 1288, 1293, 1322, 1294, 1294, 1294, 1294, 1294, 1323,
+     1295, 1295, 1295, 1295, 1292, 1292, 1288, 1288, 1288, 1288,
+     1288, 1288, 1288, 1326, 1288, 1288, 1293, 1288, 1293, 1294,
+     1294, 1295, 1295, 1292, 1292, 1292, 1288, 1288, 1288, 1288,
+     1288, 1288, 1288, 1327, 1288, 1293, 1288, 1293, 1294, 1294,
+     1295, 1295, 1292, 1292, 1292, 1292, 1292, 1288, 1288, 1288,
+     1288, 1288, 1288, 1328, 1288, 1288, 1288, 1288, 1288, 1329,
+     1288, 1288, 1330, 1331, 1332, 1333, 1288,    0, 1288, 1288,
+     1288, 1288, 1288, 1288, 1288, 1288, 1288, 1288, 1288, 1288,
+
+     1288, 1288, 1288, 1288, 1288, 1288, 1288, 1288, 1288, 1288,
+     1288, 1288, 1288, 1288, 1288, 1288, 1288, 1288, 1288, 1288,
+     1288, 1288, 1288, 1288, 1288, 1288, 1288, 1288, 1288, 1288,
+     1288, 1288, 1288
+    } ;
+
+static yyconst flex_int16_t yy_nxt[1733] =
+    {   0,
+       12,   13,   14,   15,   16,   17,   18,   19,   20,   21,
+       12,   22,   23,   24,   25,   26,   27,   28,   28,   28,
+       28,   28,   28,   28,   28,   29,   30,   31,   32,   33,
+       34,   35,   35,   35,   35,   35,   35,   35,   35,   35,
+       35,   36,   35,   35,   37,   38,   35,   39,   40,   41,
+       42,   43,   44,   35,   35,   45,   35,   46,   47,   48,
+       49,   50,   35,   51,   52,   53,   35,   54,   35,   55,
+       35,   35,   56,   57,   58,   60,  105,  143,  106,   61,
+      107,  108,  144, 1059,  109,  311,  110,  171,  111,  159,
+      172,  112,  113,  312,  160,  114,  115,  115,  115,  115,
+
+      115,  115,  115,  115,  115,  161,  182, 1060,  183,  448,
+      145,  184,  147,  147,  147,  147,  147,  147,  147,  147,
+      147,   62,   63,   64,   65,   66,   67,  223,  449,   68,
+      224,   69,   70,   71,   72,   73,  151,   74,   75,   76,
+      155,   77,  156,   78,   60,  707,  162,  371,   61,  178,
+      185,  157,  186,  179,  708,  372,  163,  158,  164,  165,
+      173,  207,  180,  208,  174,  187,  166,  188,  175,  197,
+     1061,  189,  209,  176,  190,  191,  230,  192,  210,  177,
+      231,  198,  193,  211,  194,  195,  196,  199,  212,  232,
+       62,   63,   64,   65,   66,   67,  418,  418,   68,  213,
+
+       69,   70,   71,   72,   73,  283,   74,   75,   76,  284,
+       77,  214,   78,   80,   81,  200,  276,  349,  285,  277,
+      350,  215,   82,  216,  217,  225,  201,  351,  202,  226,
+      249,  218,  203,  227,  234,  237,  235,  238,  228,  236,
+      252,  260,  250,  261,  229,  444,  659,  470,  251,  264,
+      239,  253,  262,  254,  265,  471,  302,  255,  263,   83,
+       84,   85,   86,   87,   88,  266,  660,   89,  303,   90,
+       91,   92,   93,   94,  304,   95,   96,   97,  440,   98,
+      240,   99,   80,   81,  241,  428,  462,  242,  243,  429,
+      244,   82,  267,  463,  290,  245,  291,  246,  247,  248,
+
+      514,  591,  268,  278,  269,  270,  305,  279,  287,  292,
+      288,  280,  271,  289,  398,  441,  281,  306,  399,  307,
+      359,  502,  282,  308, 1062,  503,  360,  400,   83,   84,
+       85,   86,   87,   88,  361,  362,   89,  515,   90,   91,
+       92,   93,   94,  363,   95,   96,   97,  378,   98,  293,
+       99,   12,  364,  294,  317,  411,  295,  296,  487,  297,
+      488,  100,  412,  379,  298,  380,  299,  300,  301,  318,
+      319,  205,  413,  320,  478,  115,  115,  115,  115,  115,
+      115,  115,  115,  115,  401,  472,  402, 1063, 1064,  403,
+      404,  473,  489,   35,   35,   35,   35,   35,   35,  151,
+
+      490,   35,  545,   35,   35,   35,   35,   35,  546,   35,
+       35,   35, 1065,   35,  328,   35,  329,  521,  101,  116,
+      117,  118,  119,  330,  341,  331,  405,  332,  586,  342,
+      343,  456,  535,  457,  366,  458,  522,  344,  543,  536,
+      593,  345,  346,  367,  347, 1066,  544,  368,  369,  370,
+      120,  121,  122,  123,  124,  125,  126,  127,  128,  594,
+      129,  130,  131,  132,  133,  587,  134,  135,  136,  137,
+      138,  139,  140,  141,  142,  145, 1067,  146,  146,  146,
+      146,  146,  146,  146,  147,  147,  333,  559,  334,  560,
+      430,  335,  336,  148,  431,  149,  150, 1068,  561,  432,
+
+      352,  151,  353,  152,  373,  354,  562,  465,  374,  148,
+      480,  149,  433,  150,  574,  466,  337,  338,  575,  481,
+     1069,  375,  467,  376,  482,  483,  381,  406,  407,  408,
+      152, 1070,  339,  382,  383,  355,  384,  205,  356,  340,
+      444, 1071,  492,  615,  564,  493,  385,  565,  357,  358,
+      386,  616,  387,  633,  504,  388,  389,  494,  505,  566,
+      409,  634, 1072,  506,  410,  416,  416,  416,  416,  416,
+      416,  416,  416,  416,  538,  529,  507,  530, 1073,  531,
+      390,  631,  539,  632,  391,  392,  601,  393,  602,  540,
+      603,  617,  657,  607,  658,  781,  394,  618,  395,  396,
+
+      608,  519,  145,  397,  146,  146,  146,  146,  146,  146,
+      146,  147,  147,  145,  782,  147,  147,  147,  147,  147,
+      147,  147,  147,  147,  666,  670,  704,  610,  417,  667,
+      705,  636,  671, 1017,  637,  611,  686, 1018,  687,  151,
+      444,  444,  612,  444,  444,  444,  638,  444,  444,  444,
+      444,  444,  444,  444,  444,  444,  651,  651,  651,  651,
+      756,  205,  552, 1074,  743,  444,  444,  444,  444,  444,
+      444,  553,  624,  677,  576,  699,  554,  555,  577,  678,
+      739,  625,  746,  578,  444,  444,  626,  627,  700,  679,
+      716,  776,  740,  418,  418,  786,  579,  717,  790,  838,
+
+     1075,  787,  747,  757,  777,  805,  446, 1076,  824,  853,
+      791,  839,  444,  444,  444,  478,  478,  734,  478,  478,
+      478,  825,  478,  478,  478,  478,  478,  478,  478,  478,
+      478,  416,  416,  416,  416,  416,  416,  416,  416,  416,
+      478,  478,  478,  478,  478,  478,  796,  834,  806,  829,
+      844,  872,  854,  835,  877,  882, 1077, 1078, 1024,  478,
+      478,  883, 1005, 1079,  873, 1006,  797, 1080,  830, 1081,
+      845, 1082, 1025,  878, 1026, 1083, 1084, 1085, 1086, 1087,
+     1088, 1089, 1090, 1091, 1094, 1095, 1096,  478,  478,  478,
+      743,  743, 1092,  743,  743,  743, 1097,  743,  743,  743,
+
+      743,  743,  743,  743,  743,  743, 1098, 1099, 1100, 1093,
+     1101, 1102, 1103, 1104, 1105,  743,  743,  743,  743,  743,
+      743, 1106, 1107, 1108, 1109, 1110, 1113, 1114, 1115, 1116,
+     1117, 1118, 1119, 1120,  743,  743, 1121, 1122, 1123, 1124,
+     1125, 1126, 1127, 1128, 1129, 1130, 1131, 1132, 1133, 1134,
+     1135, 1136, 1137, 1138, 1139, 1140, 1141, 1142, 1143, 1144,
+     1146, 1147,  743,  743,  743, 1145, 1145, 1145, 1145, 1145,
+     1145, 1145, 1145, 1145, 1148, 1149, 1150, 1151, 1152, 1153,
+     1153, 1153, 1153, 1153, 1153, 1153, 1153, 1153, 1154, 1155,
+     1156, 1157, 1158, 1159, 1160, 1161, 1162, 1163, 1164, 1167,
+
+     1168, 1169, 1170, 1171, 1172, 1173, 1174, 1175, 1176, 1177,
+     1178, 1179, 1180, 1181, 1182, 1183, 1184, 1185, 1186, 1187,
+     1188, 1189, 1190, 1191, 1192, 1194, 1145, 1145, 1145, 1145,
+     1145, 1145, 1145, 1145, 1145, 1195, 1196, 1197, 1198, 1199,
+     1200, 1153, 1153, 1153, 1153, 1153, 1153, 1153, 1153, 1153,
+     1202, 1203, 1204, 1205, 1208, 1209, 1210, 1211, 1212, 1213,
+     1215, 1216, 1217, 1193, 1218, 1219, 1194, 1221, 1222, 1223,
+     1201, 1224, 1194, 1225, 1193, 1226, 1227, 1228, 1229, 1230,
+     1231, 1232, 1233, 1236, 1237, 1238, 1239, 1215, 1240, 1241,
+     1193, 1194, 1242, 1243, 1244, 1247, 1245, 1248, 1249, 1193,
+
+     1246, 1250, 1251, 1252, 1253, 1255, 1256, 1257, 1258, 1259,
+     1260, 1261, 1262, 1263, 1264, 1266, 1268, 1269, 1270, 1271,
+     1272, 1273, 1275, 1276, 1277, 1278, 1279, 1281, 1265, 1267,
+     1282,   59,   59,   59,   59,   59,   59,   79,   79,   79,
+       79,   79,   79,  103,  419,  103,  103,  103,  103,  104,
+      420,  104,  153,  421,  153,  205,  205,  735,  205,  205,
+      205,  257,  736,  257,  257,  937,  257,  415,  938,  415,
+      415,  415,  415,  445, 1041,  445,  445,  445,  445,  479,
+     1042,  479,  479,  479,  479,  518,  518,  518,  518,  518,
+      518,  551,  551,  551,  551,  551,  551,  590, 1111,  590,
+
+      590,  590,  590,  623, 1112,  623,  623,  623,  623,  744,
+     1165,  744,  744,  744,  744,  794,  794,  794,  794,  794,
+      794,  842, 1166,  842,  842,  842,  842, 1193, 1193, 1193,
+     1193, 1193, 1193, 1206, 1207, 1214, 1214, 1214, 1214, 1214,
+     1214, 1220, 1220, 1220, 1220, 1220, 1220, 1234, 1235, 1254,
+     1274, 1280, 1283, 1284, 1285, 1286, 1287, 1058, 1057, 1056,
+     1055, 1054, 1053, 1052, 1051, 1050, 1049, 1048, 1047, 1046,
+     1045, 1044, 1043, 1040, 1039, 1038, 1037, 1036, 1035, 1034,
+     1033, 1032, 1031, 1030, 1029, 1028, 1027, 1023, 1022, 1021,
+     1020, 1019, 1016, 1015, 1014, 1013, 1012, 1011, 1010, 1009,
+
+     1008, 1007, 1004, 1003, 1002, 1001, 1000,  999,  998,  997,
+      996,  995,  994,  993,  992,  991,  990,  989,  988,  987,
+      986,  985,  984,  983,  982,  981,  980,  979,  978,  977,
+      976,  975,  974,  973,  972,  971,  970,  969,  968,  967,
+      966,  965,  964,  963,  962,  961,  960,  959,  958,  957,
+      956,  955,  954,  953,  952,  951,  950,  949,  948,  947,
+      946,  945,  944,  943,  942,  941,  940,  939,  936,  935,
+      934,  933,  932,  931,  930,  929,  928,  927,  926,  925,
+      924,  923,  922,  921,  920,  919,  918,  917,  916,  915,
+      914,  913,  912,  911,  910,  909,  908,  907,  906,  905,
+
+      904,  903,  902,  901,  900,  899,  898,  897,  896,  895,
+      894,  893,  892,  891,  890,  889,  888,  887,  886,  885,
+      884,  881,  880,  879,  876,  875,  874,  871,  870,  869,
+      868,  867,  866,  865,  864,  863,  862,  861,  860,  859,
+      858,  857,  856,  855,  852,  852,  851,  850,  849,  848,
+      847,  846,  843,  743,  841,  840,  837,  836,  833,  832,
+      831,  828,  827,  826,  823,  822,  821,  820,  819,  818,
+      817,  816,  815,  814,  813,  812,  811,  810,  809,  808,
+      807,  804,  804,  803,  802,  801,  800,  799,  798,  795,
+      793,  792,  789,  788,  785,  784,  783,  780,  779,  778,
+
+      775,  774,  773,  772,  771,  770,  769,  768,  767,  766,
+      765,  764,  763,  762,  761,  760,  759,  758,  755,  755,
+      754,  753,  752,  751,  750,  749,  748,  745,  742,  741,
+      738,  737,  733,  732,  731,  730,  729,  728,  727,  726,
+      725,  724,  723,  722,  721,  720,  719,  718,  715,  714,
+      713,  712,  711,  710,  709,  706,  703,  702,  701,  698,
+      697,  696,  695,  694,  693,  692,  691,  690,  689,  688,
+      685,  684,  683,  682,  681,  680,  676,  675,  674,  673,
+      672,  669,  668,  665,  664,  663,  662,  661,  656,  655,
+      654,  653,  652,  650,  649,  648,  647,  646,  645,  644,
+
+      643,  642,  641,  640,  639,  635,  630,  629,  628,  478,
+      622,  621,  620,  619,  614,  613,  609,  606,  605,  604,
+      600,  599,  598,  597,  596,  595,  592,  589,  588,  585,
+      584,  583,  582,  581,  580,  573,  572,  571,  570,  569,
+      568,  567,  563,  558,  557,  556,  550,  549,  548,  547,
+      542,  541,  537,  534,  533,  532,  528,  527,  526,  525,
+      524,  523,  520,  517,  516,  513,  512,  511,  510,  509,
+      508,  501,  500,  499,  498,  497,  496,  495,  491,  486,
+      485,  484,  477,  476,  475,  474,  469,  468,  464,  461,
+      460,  459,  455,  454,  453,  452,  451,  450,  447,  443,
+
+      442,  439,  438,  437,  436,  435,  434,  427,  426,  425,
+      424,  423,  422,  414,  377,  365,  348,  327,  326,  325,
+      324,  323,  322,  321,  316,  315,  314,  313,  310,  144,
+      309,  286,  275,  274,  273,  272,  259,  258,  256,  233,
+      222,  221,  220,  219,  206,  204,  181,  170,  169,  168,
+      167,  154,  102, 1288,   56,   56,   11, 1288, 1288, 1288,
+     1288, 1288, 1288, 1288, 1288, 1288, 1288, 1288, 1288, 1288,
+     1288, 1288, 1288, 1288, 1288, 1288, 1288, 1288, 1288, 1288,
+     1288, 1288, 1288, 1288, 1288, 1288, 1288, 1288, 1288, 1288,
+     1288, 1288, 1288, 1288, 1288, 1288, 1288, 1288, 1288, 1288,
+
+     1288, 1288, 1288, 1288, 1288, 1288, 1288, 1288, 1288, 1288,
+     1288, 1288, 1288, 1288, 1288, 1288, 1288, 1288, 1288, 1288,
+     1288, 1288, 1288, 1288, 1288, 1288, 1288, 1288, 1288, 1288,
+     1288, 1288
+    } ;
+
+static yyconst flex_int16_t yy_chk[1733] =
+    {   0,
+        1,    1,    1,    1,    1,    1,    1,    1,    1,    1,
+        1,    1,    1,    1,    1,    1,    1,    1,    1,    1,
+        1,    1,    1,    1,    1,    1,    1,    1,    1,    1,
+        1,    1,    1,    1,    1,    1,    1,    1,    1,    1,
+        1,    1,    1,    1,    1,    1,    1,    1,    1,    1,
+        1,    1,    1,    1,    1,    1,    1,    1,    1,    1,
+        1,    1,    1,    1,    1,    1,    1,    1,    1,    1,
+        1,    1,    1,    1,    1,    3,   19,   26,   19,    3,
+       19,   19,   26,  967,   19,  105,   19,   46,   19,   40,
+       46,   19,   19,  105,   40,   19,   24,   24,   24,   24,
+
+       24,   24,   24,   24,   24,   40,   50,  968,   50,  173,
+       28,   50,   28,   28,   28,   28,   28,   28,   28,   28,
+       28,    3,    3,    3,    3,    3,    3,   69,  173,    3,
+       69,    3,    3,    3,    3,    3,   28,    3,    3,    3,
+       39,    3,   39,    3,    4,  381,   41,  130,    4,   48,
+       51,   39,   51,   48,  381,  130,   41,   39,   41,   41,
+       47,   62,   48,   62,   47,   51,   41,   52,   47,   53,
+      970,   52,   62,   47,   52,   52,   71,   52,   62,   47,
+       71,   53,   52,   63,   52,   52,   52,   53,   63,   71,
+        4,    4,    4,    4,    4,    4,  148,  148,    4,   63,
+
+        4,    4,    4,    4,    4,   92,    4,    4,    4,   92,
+        4,   64,    4,    5,    5,   54,   90,  124,   92,   90,
+      124,   64,    5,   64,   64,   70,   54,  124,   54,   70,
+       76,   64,   54,   70,   73,   74,   73,   74,   70,   73,
+       77,   83,   76,   83,   70,  276,  331,  189,   76,   84,
+       74,   77,   83,   77,   84,  189,   97,   77,   83,    5,
+        5,    5,    5,    5,    5,   84,  331,    5,   97,    5,
+        5,    5,    5,    5,   97,    5,    5,    5,  168,    5,
+       75,    5,    6,    6,   75,  160,  184,   75,   75,  160,
+       75,    6,   85,  184,   95,   75,   95,   75,   75,   75,
+
+      220,  276,   85,   91,   85,   85,   98,   91,   94,   95,
+       94,   91,   85,   94,  136,  168,   91,   98,  136,   98,
+      126,  212,   91,   98,  973,  212,  126,  136,    6,    6,
+        6,    6,    6,    6,  126,  127,    6,  220,    6,    6,
+        6,    6,    6,  127,    6,    6,    6,  133,    6,   96,
+        6,    7,  127,   96,  110,  139,   96,   96,  200,   96,
+      200,    7,  139,  133,   96,  133,   96,   96,   96,  110,
+      110,  247,  139,  110,  247,  115,  115,  115,  115,  115,
+      115,  115,  115,  115,  137,  190,  137,  974,  976,  137,
+      137,  190,  201,    7,    7,    7,    7,    7,    7,  115,
+
+      201,    7,  242,    7,    7,    7,    7,    7,  242,    7,
+        7,    7,  979,    7,  120,    7,  120,  225,    7,   25,
+       25,   25,   25,  120,  122,  120,  137,  120,  273,  122,
+      122,  180,  236,  180,  129,  180,  225,  122,  241,  236,
+      278,  122,  122,  129,  122,  980,  241,  129,  129,  129,
+       25,   25,   25,   25,   25,   25,   25,   25,   25,  278,
+       25,   25,   25,   25,   25,  273,   25,   25,   25,   25,
+       25,   25,   25,   25,   25,   27,  981,   27,   27,   27,
+       27,   27,   27,   27,   27,   27,  121,  252,  121,  252,
+      161,  121,  121,   27,  161,   27,   27,  983,  253,  161,
+
+      125,   27,  125,   27,  131,  125,  253,  186,  131,   27,
+      196,   27,  161,   27,  265,  186,  121,  121,  265,  196,
+      986,  131,  186,  131,  196,  196,  134,  138,  138,  138,
+       27,  987,  121,  134,  134,  125,  134,  223,  125,  121,
+      223,  989,  203,  294,  255,  203,  134,  255,  125,  125,
+      135,  294,  135,  306,  213,  135,  135,  203,  213,  255,
+      138,  306,  992,  213,  138,  145,  145,  145,  145,  145,
+      145,  145,  145,  145,  238,  232,  213,  232,  993,  232,
+      135,  305,  238,  305,  135,  135,  285,  135,  285,  238,
+      285,  295,  330,  289,  330,  489,  135,  295,  135,  135,
+
+      289,  223,  146,  135,  146,  146,  146,  146,  146,  146,
+      146,  146,  146,  147,  489,  147,  147,  147,  147,  147,
+      147,  147,  147,  147,  338,  341,  379,  291,  146,  338,
+      379,  308,  341,  906,  308,  291,  358,  906,  358,  147,
+      171,  171,  291,  171,  171,  171,  308,  171,  171,  171,
+      171,  171,  171,  171,  171,  171,  321,  321,  321,  321,
+      448,  501,  248,  995,  501,  171,  171,  171,  171,  171,
+      171,  248,  301,  351,  266,  374,  248,  248,  266,  351,
+      424,  301,  431,  266,  171,  171,  301,  301,  374,  351,
+      390,  483,  424,  418,  418,  493,  266,  390,  498,  570,
+
+      998,  493,  431,  448,  483,  521,  171,  999,  555,  593,
+      498,  570,  171,  171,  171,  195,  195,  418,  195,  195,
+      195,  555,  195,  195,  195,  195,  195,  195,  195,  195,
+      195,  416,  416,  416,  416,  416,  416,  416,  416,  416,
+      195,  195,  195,  195,  195,  195,  505,  565,  521,  561,
+      577,  627,  593,  565,  633,  637, 1000, 1002,  919,  195,
+      195,  637,  891, 1003,  627,  891,  505, 1004,  561, 1005,
+      577, 1006,  919,  633,  919, 1007, 1009, 1010, 1011, 1013,
+     1014, 1016, 1017, 1018, 1021, 1022, 1024,  195,  195,  195,
+      427,  427, 1019,  427,  427,  427, 1025,  427,  427,  427,
+
+      427,  427,  427,  427,  427,  427, 1026, 1027, 1029, 1019,
+     1030, 1031, 1032, 1033, 1034,  427,  427,  427,  427,  427,
+      427, 1035, 1036, 1037, 1039, 1040, 1043, 1044, 1045, 1046,
+     1047, 1048, 1049, 1051,  427,  427, 1052, 1053, 1054, 1055,
+     1056, 1057, 1058, 1059, 1060, 1062, 1063, 1064, 1065, 1066,
+     1067, 1068, 1069, 1070, 1072, 1073, 1074, 1075, 1076, 1077,
+     1080, 1082,  427,  427,  427, 1078, 1078, 1078, 1078, 1078,
+     1078, 1078, 1078, 1078, 1084, 1086, 1089, 1090, 1091, 1092,
+     1092, 1092, 1092, 1092, 1092, 1092, 1092, 1092, 1093, 1096,
+     1097, 1098, 1099, 1101, 1102, 1103, 1106, 1109, 1110, 1114,
+
+     1115, 1116, 1117, 1118, 1119, 1121, 1122, 1123, 1124, 1125,
+     1126, 1127, 1128, 1129, 1131, 1132, 1133, 1134, 1135, 1136,
+     1137, 1138, 1140, 1141, 1142, 1143, 1145, 1145, 1145, 1145,
+     1145, 1145, 1145, 1145, 1145, 1146, 1147, 1149, 1150, 1151,
+     1152, 1153, 1153, 1153, 1153, 1153, 1153, 1153, 1153, 1153,
+     1154, 1155, 1158, 1160, 1169, 1171, 1172, 1173, 1174, 1175,
+     1177, 1179, 1181, 1177, 1182, 1183, 1185, 1187, 1189, 1190,
+     1153, 1191, 1193, 1195, 1185, 1196, 1197, 1198, 1199, 1200,
+     1203, 1204, 1205, 1209, 1210, 1212, 1213, 1214, 1217, 1219,
+     1214, 1220, 1222, 1224, 1226, 1227, 1226, 1228, 1229, 1220,
+
+     1226, 1230, 1231, 1232, 1233, 1236, 1237, 1238, 1239, 1240,
+     1241, 1242, 1243, 1244, 1245, 1246, 1247, 1248, 1249, 1250,
+     1251, 1252, 1268, 1269, 1270, 1272, 1273, 1276, 1245, 1246,
+     1277, 1289, 1289, 1289, 1289, 1289, 1289, 1290, 1290, 1290,
+     1290, 1290, 1290, 1291, 1297, 1291, 1291, 1291, 1291, 1292,
+     1298, 1292, 1293, 1299, 1293, 1294, 1294, 1306, 1294, 1294,
+     1294, 1295, 1307, 1295, 1295, 1311, 1295, 1296, 1312, 1296,
+     1296, 1296, 1296, 1300, 1313, 1300, 1300, 1300, 1300, 1301,
+     1314, 1301, 1301, 1301, 1301, 1302, 1302, 1302, 1302, 1302,
+     1302, 1303, 1303, 1303, 1303, 1303, 1303, 1304, 1315, 1304,
+
+     1304, 1304, 1304, 1305, 1316, 1305, 1305, 1305, 1305, 1308,
+     1317, 1308, 1308, 1308, 1308, 1309, 1309, 1309, 1309, 1309,
+     1309, 1310, 1318, 1310, 1310, 1310, 1310, 1319, 1319, 1319,
+     1319, 1319, 1319, 1320, 1321, 1322, 1322, 1322, 1322, 1322,
+     1322, 1323, 1323, 1323, 1323, 1323, 1323, 1324, 1325, 1326,
+     1327, 1328, 1329, 1330, 1331, 1332, 1333,  964,  962,  961,
+      960,  957,  956,  954,  953,  950,  948,  947,  946,  943,
+      941,  940,  939,  935,  934,  933,  932,  931,  930,  929,
+      927,  926,  925,  924,  922,  921,  920,  918,  916,  911,
+      908,  907,  904,  902,  901,  900,  899,  898,  897,  895,
+
+      893,  892,  890,  889,  888,  887,  886,  885,  875,  873,
+      872,  869,  864,  861,  859,  857,  856,  855,  853,  852,
+      851,  847,  846,  844,  843,  842,  837,  827,  825,  824,
+      821,  816,  813,  811,  809,  808,  807,  805,  804,  803,
+      799,  798,  796,  795,  794,  789,  779,  777,  776,  773,
+      772,  767,  764,  762,  760,  759,  758,  756,  755,  754,
+      753,  749,  748,  746,  745,  744,  743,  738,  732,  731,
+      730,  729,  725,  724,  722,  721,  720,  719,  718,  716,
+      708,  705,  704,  703,  697,  696,  694,  691,  689,  687,
+      686,  684,  683,  679,  678,  677,  675,  672,  670,  669,
+
+      668,  667,  666,  665,  661,  657,  656,  654,  652,  650,
+      649,  648,  647,  646,  645,  644,  643,  642,  641,  640,
+      638,  636,  635,  634,  632,  631,  629,  625,  624,  623,
+      621,  620,  616,  615,  613,  612,  608,  607,  606,  605,
+      602,  599,  598,  595,  591,  590,  589,  587,  584,  582,
+      580,  578,  575,  573,  572,  571,  568,  566,  564,  563,
+      562,  560,  559,  557,  553,  552,  551,  549,  548,  544,
+      543,  541,  540,  536,  535,  534,  533,  530,  527,  526,
+      523,  519,  518,  517,  515,  512,  510,  508,  506,  503,
+      500,  499,  496,  494,  492,  491,  490,  488,  487,  485,
+
+      481,  480,  479,  478,  476,  475,  471,  470,  468,  467,
+      463,  462,  461,  460,  457,  454,  453,  450,  446,  445,
+      444,  443,  441,  438,  436,  434,  432,  429,  426,  425,
+      422,  421,  414,  412,  410,  409,  405,  403,  402,  401,
+      399,  398,  397,  396,  395,  394,  393,  391,  388,  387,
+      386,  385,  384,  383,  382,  380,  378,  376,  375,  373,
+      372,  371,  369,  367,  366,  365,  362,  361,  360,  359,
+      357,  356,  355,  354,  353,  352,  350,  349,  348,  346,
+      344,  340,  339,  337,  335,  334,  333,  332,  329,  328,
+      324,  323,  322,  320,  319,  318,  317,  316,  315,  314,
+
+      313,  312,  311,  310,  309,  307,  304,  303,  302,  300,
+      299,  298,  297,  296,  293,  292,  290,  288,  287,  286,
+      284,  283,  282,  281,  280,  279,  277,  275,  274,  272,
+      271,  270,  269,  268,  267,  264,  263,  262,  261,  260,
+      258,  256,  254,  251,  250,  249,  246,  245,  244,  243,
+      240,  239,  237,  235,  234,  233,  231,  230,  229,  228,
+      227,  226,  224,  222,  221,  219,  218,  217,  216,  215,
+      214,  211,  210,  209,  208,  207,  206,  204,  202,  199,
+      198,  197,  194,  193,  192,  191,  188,  187,  185,  183,
+      182,  181,  179,  178,  177,  176,  175,  174,  172,  170,
+
+      169,  167,  166,  165,  164,  163,  162,  159,  158,  157,
+      156,  155,  154,  140,  132,  128,  123,  119,  118,  117,
+      114,  113,  112,  111,  109,  108,  107,  106,  102,  100,
+       99,   93,   89,   88,   87,   86,   82,   80,   78,   72,
+       68,   67,   66,   65,   60,   55,   49,   45,   44,   43,
+       42,   36,   13,   11,   10,    9, 1288, 1288, 1288, 1288,
+     1288, 1288, 1288, 1288, 1288, 1288, 1288, 1288, 1288, 1288,
+     1288, 1288, 1288, 1288, 1288, 1288, 1288, 1288, 1288, 1288,
+     1288, 1288, 1288, 1288, 1288, 1288, 1288, 1288, 1288, 1288,
+     1288, 1288, 1288, 1288, 1288, 1288, 1288, 1288, 1288, 1288,
+
+     1288, 1288, 1288, 1288, 1288, 1288, 1288, 1288, 1288, 1288,
+     1288, 1288, 1288, 1288, 1288, 1288, 1288, 1288, 1288, 1288,
+     1288, 1288, 1288, 1288, 1288, 1288, 1288, 1288, 1288, 1288,
+     1288, 1288
+    } ;
+
+/* Table of booleans, true if rule could match eol. */
+static yyconst flex_int32_t yy_rule_can_match_eol[290] =
+    {   0,
+0, 0, 0, 0, 0, 0, 0, 0, 0, 0, 0, 0, 0, 0, 0, 0, 0, 0, 0, 
+    0, 0, 0, 0, 0, 0, 0, 0, 0, 0, 0, 0, 0, 0, 0, 0, 0, 0, 0, 0, 
+    0, 0, 0, 0, 0, 0, 0, 0, 0, 0, 0, 0, 0, 0, 0, 0, 0, 0, 0, 0, 
+    0, 0, 0, 0, 0, 0, 0, 0, 0, 0, 0, 0, 0, 0, 0, 0, 0, 0, 0, 0, 
+    0, 0, 0, 0, 0, 0, 0, 0, 0, 0, 0, 0, 0, 0, 0, 0, 0, 0, 0, 0, 
+    0, 0, 0, 0, 0, 0, 0, 0, 0, 0, 0, 0, 0, 0, 0, 0, 0, 0, 0, 0, 
+    0, 0, 0, 0, 0, 0, 0, 0, 0, 0, 0, 0, 0, 0, 0, 0, 0, 0, 0, 0, 
+    0, 0, 0, 0, 0, 0, 0, 0, 0, 0, 0, 0, 0, 0, 0, 0, 0, 0, 0, 0, 
+    0, 0, 0, 0, 0, 0, 0, 0, 0, 0, 0, 0, 0, 0, 0, 0, 0, 0, 0, 0, 
+    0, 0, 0, 0, 0, 0, 0, 0, 0, 0, 0, 0, 0, 0, 0, 0, 0, 0, 0, 0, 
+    0, 0, 0, 0, 0, 0, 0, 0, 0, 0, 0, 0, 0, 0, 0, 0, 0, 0, 0, 0, 
+    0, 0, 0, 0, 0, 0, 0, 0, 0, 0, 0, 0, 0, 0, 0, 0, 0, 0, 0, 0, 
+    0, 0, 0, 0, 0, 0, 0, 0, 0, 0, 0, 0, 0, 0, 0, 0, 0, 0, 0, 0, 
+    0, 0, 0, 0, 0, 0, 0, 0, 0, 0, 0, 0, 0, 0, 1, 0, 0, 0, 0, 0, 
+    0, 0, 0, 1, 0, 0, 1, 1, 0, 0,     };
+
+static yy_state_type yy_last_accepting_state;
+static char *yy_last_accepting_cpos;
+
+extern int ptx__flex_debug;
+int ptx__flex_debug = 0;
+
+/* The intent behind this definition is that it'll catch
+ * any uses of REJECT which flex missed.
+ */
+#define REJECT reject_used_but_not_detected
+#define yymore() yymore_used_but_not_detected
+#define YY_MORE_ADJ 0
+#define YY_RESTORE_YY_MORE_OFFSET
+char *ptx_text;
+#line 1 "ptx.l"
+/*
+Copyright (c) 2009-2011, Tor M. Aamodt
+The University of British Columbia
+All rights reserved.
+
+Redistribution and use in source and binary forms, with or without
+modification, are permitted provided that the following conditions are met:
+
+Redistributions of source code must retain the above copyright notice, this
+list of conditions and the following disclaimer.
+Redistributions in binary form must reproduce the above copyright notice, this
+list of conditions and the following disclaimer in the documentation and/or
+other materials provided with the distribution.
+Neither the name of The University of British Columbia nor the names of its
+contributors may be used to endorse or promote products derived from this
+software without specific prior written permission.
+
+THIS SOFTWARE IS PROVIDED BY THE COPYRIGHT HOLDERS AND CONTRIBUTORS "AS IS" AND
+ANY EXPRESS OR IMPLIED WARRANTIES, INCLUDING, BUT NOT LIMITED TO, THE IMPLIED
+WARRANTIES OF MERCHANTABILITY AND FITNESS FOR A PARTICULAR PURPOSE ARE
+DISCLAIMED. IN NO EVENT SHALL THE COPYRIGHT HOLDER OR CONTRIBUTORS BE LIABLE
+FOR ANY DIRECT, INDIRECT, INCIDENTAL, SPECIAL, EXEMPLARY, OR CONSEQUENTIAL
+DAMAGES (INCLUDING, BUT NOT LIMITED TO, PROCUREMENT OF SUBSTITUTE GOODS OR
+SERVICES; LOSS OF USE, DATA, OR PROFITS; OR BUSINESS INTERRUPTION) HOWEVER
+CAUSED AND ON ANY THEORY OF LIABILITY, WHETHER IN CONTRACT, STRICT LIABILITY,
+OR TORT (INCLUDING NEGLIGENCE OR OTHERWISE) ARISING IN ANY WAY OUT OF THE USE
+OF THIS SOFTWARE, EVEN IF ADVISED OF THE POSSIBILITY OF SUCH DAMAGE.
+*/
+#line 35 "ptx.l"
+#include "opcodes.h"
+#include "ptx.tab.h"
+#include <string.h>
+
+char linebuf[1024];
+unsigned col = 0;
+#define TC col+=strlen(ptx_text); 
+#define CHECK_UNSIGNED \
+	if( ptx_text[strlen(ptx_text)-1]=='U' ) { \
+		printf("GPGPU-Sim: ERROR ** U modifier not implemented\n"); \
+		abort(); \
+	}
+int ptx_error( const char *s );
+
+
+
+
+#line 1378 "lex.ptx_.c"
+
+#define INITIAL 0
+#define IN_STRING 1
+#define IN_COMMENT 2
+#define IN_FUNC_DECL 3
+#define NOT_OPCODE 4
+
+#ifndef YY_NO_UNISTD_H
+/* Special case for "unistd.h", since it is non-ANSI. We include it way
+ * down here because we want the user's section 1 to have been scanned first.
+ * The user has a chance to override it with an option.
+ */
+#include <unistd.h>
+#endif
+
+#ifndef YY_EXTRA_TYPE
+#define YY_EXTRA_TYPE void *
+#endif
+
+static int yy_init_globals (void );
+
+/* Accessor methods to globals.
+   These are made visible to non-reentrant scanners for convenience. */
+
+int ptx_lex_destroy (void );
+
+int ptx_get_debug (void );
+
+void ptx_set_debug (int debug_flag  );
+
+YY_EXTRA_TYPE ptx_get_extra (void );
+
+void ptx_set_extra (YY_EXTRA_TYPE user_defined  );
+
+FILE *ptx_get_in (void );
+
+void ptx_set_in  (FILE * in_str  );
+
+FILE *ptx_get_out (void );
+
+void ptx_set_out  (FILE * out_str  );
+
+int ptx_get_leng (void );
+
+char *ptx_get_text (void );
+
+int ptx_get_lineno (void );
+
+void ptx_set_lineno (int line_number  );
+
+/* Macros after this point can all be overridden by user definitions in
+ * section 1.
+ */
+
+#ifndef YY_SKIP_YYWRAP
+#ifdef __cplusplus
+extern "C" int ptx_wrap (void );
+#else
+extern int ptx_wrap (void );
+#endif
+#endif
+
+#ifndef yytext_ptr
+static void yy_flex_strncpy (char *,yyconst char *,int );
+#endif
+
+#ifdef YY_NEED_STRLEN
+static int yy_flex_strlen (yyconst char * );
+#endif
+
+#ifndef YY_NO_INPUT
+
+#ifdef __cplusplus
+static int yyinput (void );
+#else
+static int input (void );
+#endif
+
+#endif
+
+/* Amount of stuff to slurp up with each read. */
+#ifndef YY_READ_BUF_SIZE
+#ifdef __ia64__
+/* On IA-64, the buffer size is 16k, not 8k */
+#define YY_READ_BUF_SIZE 16384
+#else
+#define YY_READ_BUF_SIZE 8192
+#endif /* __ia64__ */
+#endif
+
+/* Copy whatever the last rule matched to the standard output. */
+#ifndef ECHO
+/* This used to be an fputs(), but since the string might contain NUL's,
+ * we now use fwrite().
+ */
+#define ECHO do { if (fwrite( ptx_text, ptx_leng, 1, ptx_out )) {} } while (0)
+#endif
+
+/* Gets input and stuffs it into "buf".  number of characters read, or YY_NULL,
+ * is returned in "result".
+ */
+#ifndef YY_INPUT
+#define YY_INPUT(buf,result,max_size) \
+	if ( YY_CURRENT_BUFFER_LVALUE->yy_is_interactive ) \
+		{ \
+		int c = '*'; \
+		size_t n; \
+		for ( n = 0; n < max_size && \
+			     (c = getc( ptx_in )) != EOF && c != '\n'; ++n ) \
+			buf[n] = (char) c; \
+		if ( c == '\n' ) \
+			buf[n++] = (char) c; \
+		if ( c == EOF && ferror( ptx_in ) ) \
+			YY_FATAL_ERROR( "input in flex scanner failed" ); \
+		result = n; \
+		} \
+	else \
+		{ \
+		errno=0; \
+		while ( (result = fread(buf, 1, max_size, ptx_in))==0 && ferror(ptx_in)) \
+			{ \
+			if( errno != EINTR) \
+				{ \
+				YY_FATAL_ERROR( "input in flex scanner failed" ); \
+				break; \
+				} \
+			errno=0; \
+			clearerr(ptx_in); \
+			} \
+		}\
+\
+
+#endif
+
+/* No semi-colon after return; correct usage is to write "yyterminate();" -
+ * we don't want an extra ';' after the "return" because that will cause
+ * some compilers to complain about unreachable statements.
+ */
+#ifndef yyterminate
+#define yyterminate() return YY_NULL
+#endif
+
+/* Number of entries by which start-condition stack grows. */
+#ifndef YY_START_STACK_INCR
+#define YY_START_STACK_INCR 25
+#endif
+
+/* Report a fatal error. */
+#ifndef YY_FATAL_ERROR
+#define YY_FATAL_ERROR(msg) yy_fatal_error( msg )
+#endif
+
+/* end tables serialization structures and prototypes */
+
+/* Default declaration of generated scanner - a define so the user can
+ * easily add parameters.
+ */
+#ifndef YY_DECL
+#define YY_DECL_IS_OURS 1
+
+extern int ptx_lex (void);
+
+#define YY_DECL int ptx_lex (void)
+#endif /* !YY_DECL */
+
+/* Code executed at the beginning of each rule, after ptx_text and ptx_leng
+ * have been set up.
+ */
+#ifndef YY_USER_ACTION
+#define YY_USER_ACTION
+#endif
+
+/* Code executed at the end of each rule. */
+#ifndef YY_BREAK
+#define YY_BREAK break;
+#endif
+
+#define YY_RULE_SETUP \
+	YY_USER_ACTION
+
+/** The main scanner function which does all the work.
+ */
+YY_DECL
+{
+	register yy_state_type yy_current_state;
+	register char *yy_cp, *yy_bp;
+	register int yy_act;
+    
+#line 54 "ptx.l"
+
+
+#line 1570 "lex.ptx_.c"
+
+	if ( !(yy_init) )
+		{
+		(yy_init) = 1;
+
+#ifdef YY_USER_INIT
+		YY_USER_INIT;
+#endif
+
+		if ( ! (yy_start) )
+			(yy_start) = 1;	/* first start state */
+
+		if ( ! ptx_in )
+			ptx_in = stdin;
+
+		if ( ! ptx_out )
+			ptx_out = stdout;
+
+		if ( ! YY_CURRENT_BUFFER ) {
+			ptx_ensure_buffer_stack ();
+			YY_CURRENT_BUFFER_LVALUE =
+				ptx__create_buffer(ptx_in,YY_BUF_SIZE );
+		}
+
+		ptx__load_buffer_state( );
+		}
+
+	while ( 1 )		/* loops until end-of-file is reached */
+		{
+		yy_cp = (yy_c_buf_p);
+
+		/* Support of ptx_text. */
+		*yy_cp = (yy_hold_char);
+
+		/* yy_bp points to the position in yy_ch_buf of the start of
+		 * the current run.
+		 */
+		yy_bp = yy_cp;
+
+		yy_current_state = (yy_start);
+yy_match:
+		do
+			{
+			register YY_CHAR yy_c = yy_ec[YY_SC_TO_UI(*yy_cp)];
+			if ( yy_accept[yy_current_state] )
+				{
[...]
+             YYCHECK.  In other words, skip the first -YYN actions for
+             this state because they are default actions.  */
+          int yyxbegin = yyn < 0 ? -yyn : 0;
+          /* Stay within bounds of both yycheck and yytname.  */
+          int yychecklim = YYLAST - yyn + 1;
+          int yyxend = yychecklim < YYNTOKENS ? yychecklim : YYNTOKENS;
+          int yyx;
+
+          for (yyx = yyxbegin; yyx < yyxend; ++yyx)
+            if (yycheck[yyx + yyn] == yyx && yyx != YYTERROR
+                && !yytable_value_is_error (yytable[yyx + yyn]))
+              {
+                if (yycount == YYERROR_VERBOSE_ARGS_MAXIMUM)
+                  {
+                    yycount = 1;
+                    yysize = yysize0;
+                    break;
+                  }
+                yyarg[yycount++] = yytname[yyx];
+                {
+                  YYSIZE_T yysize1 = yysize + yytnamerr (YY_NULLPTR, yytname[yyx]);
+                  if (! (yysize <= yysize1
+                         && yysize1 <= YYSTACK_ALLOC_MAXIMUM))
+                    return 2;
+                  yysize = yysize1;
+                }
+              }
+        }
+    }
+
+  switch (yycount)
+    {
+# define YYCASE_(N, S)                      \
+      case N:                               \
+        yyformat = S;                       \
+      break
+      YYCASE_(0, YY_("syntax error"));
+      YYCASE_(1, YY_("syntax error, unexpected %s"));
+      YYCASE_(2, YY_("syntax error, unexpected %s, expecting %s"));
+      YYCASE_(3, YY_("syntax error, unexpected %s, expecting %s or %s"));
+      YYCASE_(4, YY_("syntax error, unexpected %s, expecting %s or %s or %s"));
+      YYCASE_(5, YY_("syntax error, unexpected %s, expecting %s or %s or %s or %s"));
+# undef YYCASE_
+    }
+
+  {
+    YYSIZE_T yysize1 = yysize + yystrlen (yyformat);
+    if (! (yysize <= yysize1 && yysize1 <= YYSTACK_ALLOC_MAXIMUM))
+      return 2;
+    yysize = yysize1;
+  }
+
+  if (*yymsg_alloc < yysize)
+    {
+      *yymsg_alloc = 2 * yysize;
+      if (! (yysize <= *yymsg_alloc
+             && *yymsg_alloc <= YYSTACK_ALLOC_MAXIMUM))
+        *yymsg_alloc = YYSTACK_ALLOC_MAXIMUM;
+      return 1;
+    }
+
+  /* Avoid sprintf, as that infringes on the user's name space.
+     Don't have undefined behavior even if the translation
+     produced a string with the wrong number of "%s"s.  */
+  {
+    char *yyp = *yymsg;
+    int yyi = 0;
+    while ((*yyp = *yyformat) != '\0')
+      if (*yyp == '%' && yyformat[1] == 's' && yyi < yycount)
+        {
+          yyp += yytnamerr (yyp, yyarg[yyi++]);
+          yyformat += 2;
+        }
+      else
+        {
+          yyp++;
+          yyformat++;
+        }
+  }
+  return 0;
+}
+#endif /* YYERROR_VERBOSE */
+
+/*-----------------------------------------------.
+| Release the memory associated to this symbol.  |
+`-----------------------------------------------*/
+
+static void
+yydestruct (const char *yymsg, int yytype, YYSTYPE *yyvaluep)
+{
+  YYUSE (yyvaluep);
+  if (!yymsg)
+    yymsg = "Deleting";
+  YY_SYMBOL_PRINT (yymsg, yytype, yyvaluep, yylocationp);
+
+  YY_IGNORE_MAYBE_UNINITIALIZED_BEGIN
+  YYUSE (yytype);
+  YY_IGNORE_MAYBE_UNINITIALIZED_END
+}
+
+
+
+
+/* The lookahead symbol.  */
+int yychar;
+
+/* The semantic value of the lookahead symbol.  */
+YYSTYPE yylval;
+/* Number of syntax errors so far.  */
+int yynerrs;
+
+
+/*----------.
+| yyparse.  |
+`----------*/
+
+int
+yyparse (void)
+{
+    int yystate;
+    /* Number of tokens to shift before error messages enabled.  */
+    int yyerrstatus;
+
+    /* The stacks and their tools:
+       'yyss': related to states.
+       'yyvs': related to semantic values.
+
+       Refer to the stacks through separate pointers, to allow yyoverflow
+       to reallocate them elsewhere.  */
+
+    /* The state stack.  */
+    yytype_int16 yyssa[YYINITDEPTH];
+    yytype_int16 *yyss;
+    yytype_int16 *yyssp;
+
+    /* The semantic value stack.  */
+    YYSTYPE yyvsa[YYINITDEPTH];
+    YYSTYPE *yyvs;
+    YYSTYPE *yyvsp;
+
+    YYSIZE_T yystacksize;
+
+  int yyn;
+  int yyresult;
+  /* Lookahead token as an internal (translated) token number.  */
+  int yytoken = 0;
+  /* The variables used to return semantic value and location from the
+     action routines.  */
+  YYSTYPE yyval;
+
+#if YYERROR_VERBOSE
+  /* Buffer for error messages, and its allocated size.  */
+  char yymsgbuf[128];
+  char *yymsg = yymsgbuf;
+  YYSIZE_T yymsg_alloc = sizeof yymsgbuf;
+#endif
+
+#define YYPOPSTACK(N)   (yyvsp -= (N), yyssp -= (N))
+
+  /* The number of symbols on the RHS of the reduced rule.
+     Keep to zero when no symbol should be popped.  */
+  int yylen = 0;
+
+  yyssp = yyss = yyssa;
+  yyvsp = yyvs = yyvsa;
+  yystacksize = YYINITDEPTH;
+
+  YYDPRINTF ((stderr, "Starting parse\n"));
+
+  yystate = 0;
+  yyerrstatus = 0;
+  yynerrs = 0;
+  yychar = YYEMPTY; /* Cause a token to be read.  */
+  goto yysetstate;
+
+/*------------------------------------------------------------.
+| yynewstate -- Push a new state, which is found in yystate.  |
+`------------------------------------------------------------*/
+ yynewstate:
+  /* In all cases, when you get here, the value and location stacks
+     have just been pushed.  So pushing a state here evens the stacks.  */
+  yyssp++;
+
+ yysetstate:
+  *yyssp = yystate;
+
+  if (yyss + yystacksize - 1 <= yyssp)
+    {
+      /* Get the current used size of the three stacks, in elements.  */
+      YYSIZE_T yysize = yyssp - yyss + 1;
+
+#ifdef yyoverflow
+      {
+        /* Give user a chance to reallocate the stack.  Use copies of
+           these so that the &'s don't force the real ones into
+           memory.  */
+        YYSTYPE *yyvs1 = yyvs;
+        yytype_int16 *yyss1 = yyss;
+
+        /* Each stack pointer address is followed by the size of the
+           data in use in that stack, in bytes.  This used to be a
+           conditional around just the two extra args, but that might
+           be undefined if yyoverflow is a macro.  */
+        yyoverflow (YY_("memory exhausted"),
+                    &yyss1, yysize * sizeof (*yyssp),
+                    &yyvs1, yysize * sizeof (*yyvsp),
+                    &yystacksize);
+
+        yyss = yyss1;
+        yyvs = yyvs1;
+      }
+#else /* no yyoverflow */
+# ifndef YYSTACK_RELOCATE
+      goto yyexhaustedlab;
+# else
+      /* Extend the stack our own way.  */
+      if (YYMAXDEPTH <= yystacksize)
+        goto yyexhaustedlab;
+      yystacksize *= 2;
+      if (YYMAXDEPTH < yystacksize)
+        yystacksize = YYMAXDEPTH;
+
+      {
+        yytype_int16 *yyss1 = yyss;
+        union yyalloc *yyptr =
+          (union yyalloc *) YYSTACK_ALLOC (YYSTACK_BYTES (yystacksize));
+        if (! yyptr)
+          goto yyexhaustedlab;
+        YYSTACK_RELOCATE (yyss_alloc, yyss);
+        YYSTACK_RELOCATE (yyvs_alloc, yyvs);
+#  undef YYSTACK_RELOCATE
+        if (yyss1 != yyssa)
+          YYSTACK_FREE (yyss1);
+      }
+# endif
+#endif /* no yyoverflow */
+
+      yyssp = yyss + yysize - 1;
+      yyvsp = yyvs + yysize - 1;
+
+      YYDPRINTF ((stderr, "Stack size increased to %lu\n",
+                  (unsigned long int) yystacksize));
+
+      if (yyss + yystacksize - 1 <= yyssp)
+        YYABORT;
+    }
+
+  YYDPRINTF ((stderr, "Entering state %d\n", yystate));
+
+  if (yystate == YYFINAL)
+    YYACCEPT;
+
+  goto yybackup;
+
+/*-----------.
+| yybackup.  |
+`-----------*/
+yybackup:
+
+  /* Do appropriate processing given the current state.  Read a
+     lookahead token if we need one and don't already have one.  */
+
+  /* First try to decide what to do without reference to lookahead token.  */
+  yyn = yypact[yystate];
+  if (yypact_value_is_default (yyn))
+    goto yydefault;
+
+  /* Not known => get a lookahead token if don't already have one.  */
+
+  /* YYCHAR is either YYEMPTY or YYEOF or a valid lookahead symbol.  */
+  if (yychar == YYEMPTY)
+    {
+      YYDPRINTF ((stderr, "Reading a token: "));
+      yychar = yylex ();
+    }
+
+  if (yychar <= YYEOF)
+    {
+      yychar = yytoken = YYEOF;
+      YYDPRINTF ((stderr, "Now at end of input.\n"));
+    }
+  else
+    {
+      yytoken = YYTRANSLATE (yychar);
+      YY_SYMBOL_PRINT ("Next token is", yytoken, &yylval, &yylloc);
+    }
+
+  /* If the proper action on seeing token YYTOKEN is to reduce or to
+     detect an error, take that action.  */
+  yyn += yytoken;
+  if (yyn < 0 || YYLAST < yyn || yycheck[yyn] != yytoken)
+    goto yydefault;
+  yyn = yytable[yyn];
+  if (yyn <= 0)
+    {
+      if (yytable_value_is_error (yyn))
+        goto yyerrlab;
+      yyn = -yyn;
+      goto yyreduce;
+    }
+
+  /* Count tokens shifted since error; after three, turn off error
+     status.  */
+  if (yyerrstatus)
+    yyerrstatus--;
+
+  /* Shift the lookahead token.  */
+  YY_SYMBOL_PRINT ("Shifting", yytoken, &yylval, &yylloc);
+
+  /* Discard the shifted token.  */
+  yychar = YYEMPTY;
+
+  yystate = yyn;
+  YY_IGNORE_MAYBE_UNINITIALIZED_BEGIN
+  *++yyvsp = yylval;
+  YY_IGNORE_MAYBE_UNINITIALIZED_END
+
+  goto yynewstate;
+
+
+/*-----------------------------------------------------------.
+| yydefault -- do the default action for the current state.  |
+`-----------------------------------------------------------*/
+yydefault:
+  yyn = yydefact[yystate];
+  if (yyn == 0)
+    goto yyerrlab;
+  goto yyreduce;
+
+
+/*-----------------------------.
+| yyreduce -- Do a reduction.  |
+`-----------------------------*/
+yyreduce:
+  /* yyn is the number of a rule to reduce with.  */
+  yylen = yyr2[yyn];
+
+  /* If YYLEN is nonzero, implement the default value of the action:
+     '$$ = $1'.
+
+     Otherwise, the following line sets YYVAL to garbage.
+     This behavior is undocumented and Bison
+     users should not rely upon it.  Assigning to YYVAL
+     unconditionally makes the parser a bit smaller, and it avoids a
+     GCC warning that YYVAL may be used uninitialized.  */
+  yyval = yyvsp[1-yylen];
+
+
+  YY_REDUCE_PRINT (yyn);
+  switch (yyn)
+    {
+        case 4:
+#line 32 "config.y" /* yacc.c:1646  */
+    { config_assign_string( (yyvsp[-3].name), (yyvsp[-1].name) ); free( (yyvsp[-3].name) ); free( (yyvsp[-1].name) ); }
+#line 1223 "y.tab.c" /* yacc.c:1646  */
+    break;
+
+  case 5:
+#line 33 "config.y" /* yacc.c:1646  */
+    { config_assign_int( (yyvsp[-3].name), (yyvsp[-1].num) ); free( (yyvsp[-3].name) ); }
+#line 1229 "y.tab.c" /* yacc.c:1646  */
+    break;
+
+  case 6:
+#line 34 "config.y" /* yacc.c:1646  */
+    { config_assign_float( (yyvsp[-3].name), (yyvsp[-1].fnum) ); free( (yyvsp[-3].name) ); }
+#line 1235 "y.tab.c" /* yacc.c:1646  */
+    break;
+
+
+#line 1239 "y.tab.c" /* yacc.c:1646  */
+      default: break;
+    }
+  /* User semantic actions sometimes alter yychar, and that requires
+     that yytoken be updated with the new translation.  We take the
+     approach of translating immediately before every use of yytoken.
+     One alternative is translating here after every semantic action,
+     but that translation would be missed if the semantic action invokes
+     YYABORT, YYACCEPT, or YYERROR immediately after altering yychar or
+     if it invokes YYBACKUP.  In the case of YYABORT or YYACCEPT, an
+     incorrect destructor might then be invoked immediately.  In the
+     case of YYERROR or YYBACKUP, subsequent parser actions might lead
+     to an incorrect destructor call or verbose syntax error message
+     before the lookahead is translated.  */
+  YY_SYMBOL_PRINT ("-> $$ =", yyr1[yyn], &yyval, &yyloc);
+
+  YYPOPSTACK (yylen);
+  yylen = 0;
+  YY_STACK_PRINT (yyss, yyssp);
+
+  *++yyvsp = yyval;
+
+  /* Now 'shift' the result of the reduction.  Determine what state
+     that goes to, based on the state we popped back to and the rule
+     number reduced by.  */
+
+  yyn = yyr1[yyn];
+
+  yystate = yypgoto[yyn - YYNTOKENS] + *yyssp;
+  if (0 <= yystate && yystate <= YYLAST && yycheck[yystate] == *yyssp)
+    yystate = yytable[yystate];
+  else
+    yystate = yydefgoto[yyn - YYNTOKENS];
+
+  goto yynewstate;
+
+
+/*--------------------------------------.
+| yyerrlab -- here on detecting error.  |
+`--------------------------------------*/
+yyerrlab:
+  /* Make sure we have latest lookahead translation.  See comments at
+     user semantic actions for why this is necessary.  */
+  yytoken = yychar == YYEMPTY ? YYEMPTY : YYTRANSLATE (yychar);
+
+  /* If not already recovering from an error, report this error.  */
+  if (!yyerrstatus)
+    {
+      ++yynerrs;
+#if ! YYERROR_VERBOSE
+      yyerror (YY_("syntax error"));
+#else
+# define YYSYNTAX_ERROR yysyntax_error (&yymsg_alloc, &yymsg, \
+                                        yyssp, yytoken)
+      {
+        char const *yymsgp = YY_("syntax error");
+        int yysyntax_error_status;
+        yysyntax_error_status = YYSYNTAX_ERROR;
+        if (yysyntax_error_status == 0)
+          yymsgp = yymsg;
+        else if (yysyntax_error_status == 1)
+          {
+            if (yymsg != yymsgbuf)
+              YYSTACK_FREE (yymsg);
+            yymsg = (char *) YYSTACK_ALLOC (yymsg_alloc);
+            if (!yymsg)
+              {
+                yymsg = yymsgbuf;
+                yymsg_alloc = sizeof yymsgbuf;
+                yysyntax_error_status = 2;
+              }
+            else
+              {
+                yysyntax_error_status = YYSYNTAX_ERROR;
+                yymsgp = yymsg;
+              }
+          }
+        yyerror (yymsgp);
+        if (yysyntax_error_status == 2)
+          goto yyexhaustedlab;
+      }
+# undef YYSYNTAX_ERROR
+#endif
+    }
+
+
+
+  if (yyerrstatus == 3)
+    {
+      /* If just tried and failed to reuse lookahead token after an
+         error, discard it.  */
+
+      if (yychar <= YYEOF)
+        {
+          /* Return failure if at end of input.  */
+          if (yychar == YYEOF)
+            YYABORT;
+        }
+      else
+        {
+          yydestruct ("Error: discarding",
+                      yytoken, &yylval);
+          yychar = YYEMPTY;
+        }
+    }
+
+  /* Else will try to reuse lookahead token after shifting the error
+     token.  */
+  goto yyerrlab1;
+
+
+/*---------------------------------------------------.
+| yyerrorlab -- error raised explicitly by YYERROR.  |
+`---------------------------------------------------*/
+yyerrorlab:
+
+  /* Pacify compilers like GCC when the user code never invokes
+     YYERROR and the label yyerrorlab therefore never appears in user
+     code.  */
+  if (/*CONSTCOND*/ 0)
+     goto yyerrorlab;
+
+  /* Do not reclaim the symbols of the rule whose action triggered
+     this YYERROR.  */
+  YYPOPSTACK (yylen);
+  yylen = 0;
+  YY_STACK_PRINT (yyss, yyssp);
+  yystate = *yyssp;
+  goto yyerrlab1;
+
+
+/*-------------------------------------------------------------.
+| yyerrlab1 -- common code for both syntax error and YYERROR.  |
+`-------------------------------------------------------------*/
+yyerrlab1:
+  yyerrstatus = 3;      /* Each real token shifted decrements this.  */
+
+  for (;;)
+    {
+      yyn = yypact[yystate];
+      if (!yypact_value_is_default (yyn))
+        {
+          yyn += YYTERROR;
+          if (0 <= yyn && yyn <= YYLAST && yycheck[yyn] == YYTERROR)
+            {
+              yyn = yytable[yyn];
+              if (0 < yyn)
+                break;
+            }
+        }
+
+      /* Pop the current state because it cannot handle the error token.  */
+      if (yyssp == yyss)
+        YYABORT;
+
+
+      yydestruct ("Error: popping",
+                  yystos[yystate], yyvsp);
+      YYPOPSTACK (1);
+      yystate = *yyssp;
+      YY_STACK_PRINT (yyss, yyssp);
+    }
+
+  YY_IGNORE_MAYBE_UNINITIALIZED_BEGIN
+  *++yyvsp = yylval;
+  YY_IGNORE_MAYBE_UNINITIALIZED_END
+
+
+  /* Shift the error token.  */
+  YY_SYMBOL_PRINT ("Shifting", yystos[yyn], yyvsp, yylsp);
+
+  yystate = yyn;
+  goto yynewstate;
+
+
+/*-------------------------------------.
+| yyacceptlab -- YYACCEPT comes here.  |
+`-------------------------------------*/
+yyacceptlab:
+  yyresult = 0;
+  goto yyreturn;
+
+/*-----------------------------------.
+| yyabortlab -- YYABORT comes here.  |
+`-----------------------------------*/
+yyabortlab:
+  yyresult = 1;
+  goto yyreturn;
+
+#if !defined yyoverflow || YYERROR_VERBOSE
+/*-------------------------------------------------.
+| yyexhaustedlab -- memory exhaustion comes here.  |
+`-------------------------------------------------*/
+yyexhaustedlab:
+  yyerror (YY_("memory exhausted"));
+  yyresult = 2;
+  /* Fall through.  */
+#endif
+
+yyreturn:
+  if (yychar != YYEMPTY)
+    {
+      /* Make sure we have latest lookahead translation.  See comments at
+         user semantic actions for why this is necessary.  */
+      yytoken = YYTRANSLATE (yychar);
+      yydestruct ("Cleanup: discarding lookahead",
+                  yytoken, &yylval);
+    }
+  /* Do not reclaim the symbols of the rule whose action triggered
+     this YYABORT or YYACCEPT.  */
+  YYPOPSTACK (yylen);
+  YY_STACK_PRINT (yyss, yyssp);
+  while (yyssp != yyss)
+    {
+      yydestruct ("Cleanup: popping",
+                  yystos[*yyssp], yyvsp);
+      YYPOPSTACK (1);
+    }
+#ifndef yyoverflow
+  if (yyss != yyssa)
+    YYSTACK_FREE (yyss);
+#endif
+#if YYERROR_VERBOSE
+  if (yymsg != yymsgbuf)
+    YYSTACK_FREE (yymsg);
+#endif
+  return yyresult;
+}
+#line 37 "config.y" /* yacc.c:1906  */
+
diff --git a/intersim2/y.tab.h b/intersim2/y.tab.h
new file mode 100644
--- /dev/null
+++ b/intersim2/y.tab.h
@@ -0,0 +1,80 @@
+/* A Bison parser, made by GNU Bison 3.0.2.  */
+
+/* Bison interface for Yacc-like parsers in C
+
+   Copyright (C) 1984, 1989-1990, 2000-2013 Free Software Foundation, Inc.
+
+   This program is free software: you can redistribute it and/or modify
+   it under the terms of the GNU General Public License as published by
+   the Free Software Foundation, either version 3 of the License, or
+   (at your option) any later version.
+
+   This program is distributed in the hope that it will be useful,
+   but WITHOUT ANY WARRANTY; without even the implied warranty of
+   MERCHANTABILITY or FITNESS FOR A PARTICULAR PURPOSE.  See the
+   GNU General Public License for more details.
+
+   You should have received a copy of the GNU General Public License
+   along with this program.  If not, see <http://www.gnu.org/licenses/>.  */
+
+/* As a special exception, you may create a larger work that contains
+   part or all of the Bison parser skeleton and distribute that work
+   under terms of your choice, so long as that work isn't itself a
+   parser generator using the skeleton or a modified version thereof
+   as a parser skeleton.  Alternatively, if you modify or redistribute
+   the parser skeleton itself, you may (at your option) remove this
+   special exception, which will cause the skeleton and the resulting
+   Bison output files to be licensed under the GNU General Public
+   License without this special exception.
+
+   This special exception was added by the Free Software Foundation in
+   version 2.2 of Bison.  */
+
+#ifndef YY_YY_Y_TAB_H_INCLUDED
+# define YY_YY_Y_TAB_H_INCLUDED
+/* Debug traces.  */
+#ifndef YYDEBUG
+# define YYDEBUG 0
+#endif
+#if YYDEBUG
+extern int yydebug;
+#endif
+
+/* Token type.  */
+#ifndef YYTOKENTYPE
+# define YYTOKENTYPE
+  enum yytokentype
+  {
+    STR = 258,
+    NUM = 259,
+    FNUM = 260
+  };
+#endif
+/* Tokens.  */
+#define STR 258
+#define NUM 259
+#define FNUM 260
+
+/* Value type.  */
+#if ! defined YYSTYPE && ! defined YYSTYPE_IS_DECLARED
+typedef union YYSTYPE YYSTYPE;
+union YYSTYPE
+{
+#line 16 "config.y" /* yacc.c:1909  */
+
+  char   *name;
+  int    num;
+  double fnum;
+
+#line 70 "y.tab.h" /* yacc.c:1909  */
+};
+# define YYSTYPE_IS_TRIVIAL 1
+# define YYSTYPE_IS_DECLARED 1
+#endif
+
+
+extern YYSTYPE yylval;
+
+int yyparse (void);
+
+#endif /* !YY_YY_Y_TAB_H_INCLUDED  */
